    26
        -50.45746852  Gyration_radius:  2.62912918851 Dipole_moment: 3.907
 S          -1.87124887244613   -0.86692636920665   -1.18468257034912
O          -0.69939880265134   -0.24466045317537   -1.82275961297963
O          -2.82198023351824    0.11135448850480   -0.74871728271578
O          -1.46035285591606   -1.79434983191464   -0.13192925209379
O          -2.55509155722693   -1.75313137718956   -2.30857813100841
H          -1.92106506681747   -2.42618685447540   -2.54891841864355
H          -1.27865319748913   -0.74143099424077    1.08145806756938
O           1.61885382717341    2.77403124394213    0.52709021185690
H           1.75880404989271    3.51194356543573    1.12173064070225
O          -1.22292914743714    0.02989844208773    1.70077780069131
H          -2.08127370695073    0.06710402315291    2.12787781152055
O           0.92917547425517   -2.27452764579171   -1.23087548558478
H           0.19327929999819   -2.47837332634630   -0.63215087760951
H           0.61901065842274   -1.46626663010818   -1.67370438537519
O           2.75529345291784   -1.33352555846688    0.50464883788385
H           2.11572383378940   -1.74579823265300   -0.11921379417507
H           3.53389103253076   -1.12219166815986   -0.01161561455096
O           1.58086640352705    0.59918044754089    1.96645983180401
H           1.73008941445128    1.94978792012485    1.08007865376124
H           0.66869299776268    0.29584602258597    2.05575573861939
H           2.05736552760807   -0.12565811432140    1.50932320423012
N          -0.72745652341714    1.84073501462243   -0.25537144016517
H          -0.61094345074660    1.11626545315791   -1.01961219911836
H           0.17992822299097    2.34594832460853   -0.05621460565182
H          -1.49028735876817    2.45881057596874   -0.51366105860691
H          -1.00029343193148    1.27212153431300    0.58280392998794
