    26
        -50.45476133  Gyration_radius:  2.60397671489 Dipole_moment: 5.808
 S          -2.47527147609547   -0.77339286313543   -0.43215113310362
O          -1.35840015900836   -1.16013538319330   -1.26021596404606
O          -2.66071986708641    0.68599279198157   -0.46746456219568
O          -2.42395663859975   -1.27415520887375    0.92562347208690
O          -3.78461703197413   -1.39748512313706   -1.07988036672643
H          -4.40295629307218   -1.35330400065429   -0.35711486582538
H          -0.88510087794283   -1.25757944074432    1.58277946842350
O           2.04141791584098    0.56371650634240   -1.69125828981916
H           2.73097862930059    0.57117759456331   -2.35503460116315
O           0.54118110867848    1.34984650115473    1.79848940026287
H           0.06446341819362    1.74585209340030    2.52847790994064
O           0.06989328067180   -1.14407096560289    1.78569749695901
H           0.53054674262886   -1.52784185907340    1.00757373771388
H           0.33630713333023    0.34742650374153    1.84587440753493
O           1.09357961479393   -1.88825489973519   -0.58417056571944
H           0.16804525866988   -1.85503016545172   -0.89619868992191
H           1.52817991306214   -1.19554172373641   -1.09989306517357
O           2.94622039196509    0.41609734855090    0.79658839287106
H           2.26176638975305    0.88181024820645    1.30294997931516
H           2.82027146846275   -0.51872192224390    0.98689664369146
H           2.48672608965095    0.60029181938344   -0.80911326773600
N          -0.31583572540440    1.64845199700559   -0.72167967393656
H           0.31670225054922    1.07070467399368   -1.29358821251707
H          -0.34142672010275    2.59486423327863   -1.08765618557486
H          -1.32543707098702    1.22873980715572   -0.69575413019142
H           0.03744223472142    1.64054142682329    0.27022266485072
