    26
        -50.46580832  Gyration_radius:  2.4187896446 Dipole_moment: 3.787
 S           0.71687384810021   -1.39371308338873   -1.17818527695159
O           1.55916071081917   -0.64085237936229   -0.26965263545456
O           0.52943686223986   -0.72312425636829   -2.45873678938652
O          -0.55076982567837   -1.76783885044485   -0.58009888687312
O           1.49442017036065   -2.73411393240044   -1.48733704075416
H           0.94419272932065   -3.13108831420886   -2.15419669739526
H          -1.41383021996863   -0.36642713440670   -0.28894297695594
O           1.58231810927752    2.06934553851804   -0.19807810611672
H           1.86758238935381    1.13814969879460   -0.22697391869715
O          -1.90632676294913    0.44588872785286   -0.03297121129569
H          -2.48748589578917    0.12771178310037    0.67171961438335
O          -1.88247972446984   -1.53306114441520    1.92286771913644
H          -1.60172576422877   -1.97221115298748    1.11095057863114
H          -1.05519373547027   -1.27650560703995    2.35034564155215
O           0.84722447063677   -0.76598178637395    2.28376989853577
H           1.09923984376573   -0.79500564104792    1.33447943936130
H           1.61596789140207   -1.05735109930113    2.77568234973474
O          -0.17250404706638    1.73401282481962    1.73225152385026
H           0.18808971028831    0.95178228916356    2.18084690912168
H           1.03242607415629    2.12636169878837    0.62605868796437
H          -0.89119455401274    1.38564851127689    1.17679966022923
N          -0.32474727086804    1.66212887423609   -1.88114322035571
H          -0.00291194802728    0.71859243200914   -2.25431408739967
H          -0.52404109676750    2.31726548812895   -2.62883677643641
H          -1.15357330641903    1.48811304145506   -1.29525930935417
H           0.48985135197832    1.99227346360656   -1.23104506909129
