    26
        -50.46580828  Gyration_radius:  2.41885321384 Dipole_moment: 3.784
 S           1.50742712424076    0.57490428346104    1.11429909030940
O           2.50056951115407   -0.39259229182166    0.66453736520607
O           0.32692039753088   -0.05304545447661    1.67432675662915
O           1.18647820979607    1.53411060504624    0.07430175291771
O           2.17646779530961    1.38276526050823    2.29609688975750
H           2.98407103626579    1.68542405283597    1.89464820632702
H           0.52086164473430    0.69450096381681   -1.20818647273754
O           0.05270678298984    0.23559259211261   -1.94184236381580
H          -0.44909471803474    0.95260708653222   -2.35377248156464
O          -0.65008544122939   -2.41265150474834    0.76395211375809
H          -0.33678279778585   -1.70144474266181    1.35166972492124
O          -1.11916780942908    2.63908957111412   -1.17364256911019
H          -0.23578550142510    2.65017799307504   -0.78586987436728
H          -1.68026456794564    2.28442905847104   -0.47194057026399
O          -1.96153027060780    1.17732136369506    1.13346100704197
H          -2.39393461282650    1.34733549546201    1.97127221097065
H          -1.08440099892051    0.79028652149595    1.34862719390274
O          -2.19057741806560   -0.86519720479669   -0.70253618085957
H          -1.39271891503655   -1.99414808484683    0.25583455307645
H          -2.38230066990070   -0.14505289234628   -0.07987185044926
H          -1.48792164966647   -0.51094456887875   -1.27457987109198
N           1.23652511245735   -1.99862177293649   -0.94034331805360
H           0.44291077731064   -2.33625534587017   -0.26846947974456
H           0.81974545188718   -1.36605075430282   -1.63796203032623
H           1.87386629913272   -1.40812993584514   -0.32542635992924
H           1.73601520805750   -2.76441027411104   -1.37858347251375
