    26
        -50.46580819  Gyration_radius:  2.41875256486 Dipole_moment: 3.774
 S          -1.88845895356518   -0.32130051653568    0.41841576993756
O          -2.33479472995188   -0.77819491385998   -0.89172884495719
O          -1.31902842973937    1.01141823795221    0.38278600862103
O          -1.00747638192045   -1.28587882065544    1.04934483234429
O          -3.18232332391389   -0.22041522119516    1.31986124316732
H          -3.55380884217027   -1.09185211000531    1.23089041425019
H           0.34962110298043   -1.44375376465409    0.08647518813123
O           0.08712060393818    1.95175972613510   -1.73558918307569
H          -0.55131001999183    1.87769943066215   -1.00328692860321
O           1.19260950967883   -1.49373135099775   -0.41826871007057
H           1.81903730210649   -1.80991188106414    0.24755689588406
O           0.74634827629600    1.39210775200296    2.00478100790037
H          -0.05299933768742    1.21500845585240    1.46145771260960
H           0.53761884288328    2.15021084768585    2.55207709291358
O           1.52795232232818   -1.33662295452825    2.33884447791474
H           0.60078639828610   -1.56864944971261    2.20678069422145
H           1.52208656724454   -0.37330959462247    2.40968406247454
O           2.15988871900592    1.12151933140125   -0.34561010823080
H           1.97408433333878    0.16934807475869   -0.41823332242586
H           0.96961033017693    1.83310404815835   -1.29734055106437
H           1.88691584251954    1.35367097778408    0.55695731972760
N          -0.28801133184994   -0.48955790020776   -2.46659536620635
H          -0.36834074643989   -0.74590621301037   -3.44424685384001
H           0.45844417515841   -1.01825445464139   -1.99353710713189
H          -0.09652945340334    0.57691725989163   -2.32026383088493
H          -1.18904278528161   -0.67542500657707   -1.93121193362336
