    26
        -50.47114532  Gyration_radius:  2.4107554167 Dipole_moment: 3.636
 S          -0.88067267627898   -0.93227977067906    1.54223934262872
O          -1.87469683258939   -0.02934227353360    0.98677905928754
O           0.26996805571528   -0.24480325159549    2.10550035306306
O          -0.49367898506736   -1.97177371538538    0.60396333417725
O          -1.59557538002834   -1.65788198936220    2.75476306110020
H          -0.88632422430983   -2.16537330403590    3.13438516396552
H          -1.76144124077613   -1.88551671181707   -1.14504579378806
O           0.77147023380866    2.28484307615212   -0.76569658350371
H           0.90216698287137    3.20236318149492   -1.00755865489608
O          -2.10467201287507   -1.02302487985619   -1.40810198348946
H          -2.20975638746319   -0.56394384210929   -0.54414912527997
O           1.60477218875680   -1.63581014933771   -0.99443536981362
H           0.89339090496908   -1.94098491203906   -0.39185842573204
H           2.13965590188068   -1.01936156374919   -0.43958673026602
O           2.40627449647632    0.33662292102395    0.56918819921867
H           1.73627857468744    0.10990732051992    1.24211275253348
H           2.06811837081601    1.12349539297823    0.12106931337920
O          -0.57091764246380    2.19756503188046    1.45788712726859
H          -1.33005114332459    1.62525696105217    1.24236360937276
H          -0.02480313664279    1.59631908213874    1.99022364034685
H           0.22971849588197    2.29752100285933    0.07864103685552
N           0.13996579145822    0.07957486926888   -2.25440353763171
H           0.82596552196044   -0.65875196263031   -1.83454368035785
H          -0.83241113740303   -0.27861191111590   -2.01143609329707
H           0.31919763965739    0.98328350727368   -1.77528605170890
H           0.25805764026095    0.17070789059189   -3.25701399341160
