    26
        -50.46306638  Gyration_radius:  2.54489105087 Dipole_moment: 3.869
 S           1.08954496193976   -0.64742879740393    1.85929251158971
O           0.91616580166645   -1.23893594692230    0.54692707932974
O          -0.19314044673995   -0.29593733907063    2.46702049782560
O           2.00885127006339    0.47304807776783    1.86630287131427
O           1.73614084302501   -1.76484848041511    2.77248921598928
H           2.07608531500976   -1.24308935589501    3.49163550132330
H           1.69200578023390    1.78571878133957    0.86993426519780
O          -1.91653423958407    0.60539897647836   -1.13229627028990
H          -2.36517197602162    0.82099041892387   -1.95065108928119
O           1.23025665857501    2.39504469182853    0.24845455599022
H           1.23990463042254    1.93318081064280   -0.60314633092767
O          -1.25561108199021   -2.18158157021059   -0.78146704998537
H          -1.79238453780638   -1.38050703346253   -0.73101138071342
H          -0.49248039370920   -2.01628099815549   -0.19864556142110
O           0.06292888400300   -1.75506284669671   -3.08442081875504
H           0.71090758217994   -2.45096886023926   -3.19982157383413
H          -0.49886534389828   -2.03475131126282   -2.32302513102592
O           0.66735608148536    0.35569085727687   -1.54578615780975
H           0.87724663068786   -0.21334168510888   -0.77214827883571
H           0.61138694025967   -0.27830005473444   -2.29250507657629
H          -0.94528351289247    0.53678200275373   -1.35563818872367
N          -1.11965914931192    1.74016321467834    1.17779630745503
H          -0.20640497573897    2.16857003213083    0.80655463167963
H          -1.65897398614234    2.40099472389859    1.72553565748974
H          -1.65809505493949    1.38377754902714    0.36450517998989
H          -0.81617669074273    0.90167414284472    1.77411466302385
