    26
        -50.46332804  Gyration_radius:  2.58144422335 Dipole_moment: 7.581
 S           0.85719517618710    0.05973509918284    1.80938969239122
O           0.79827380073595   -1.36050516715560    1.60469802838671
O          -0.47076549824341    0.69317896584311    1.71707651977263
O           1.77813156054568    0.73401722815661    0.88723687291388
O           1.38046538958010    0.32367126537828    3.25843215777416
H           1.39617668922456    1.29846690995543    3.29745535819378
H           1.66324244552069    0.32471885325425   -0.61563979766121
O          -1.99035885790786   -2.38654889932387   -0.95905394226547
H          -2.24724575691561   -2.82552927739374   -1.77048394071762
O           1.59337016413782    0.08337206879540   -1.58442732388271
H           2.46267803037318    0.25831638935116   -1.94965743390609
O           1.06972948277028    2.82395473316263    2.41866327334637
H           1.58601420550485    2.44315631851060    1.69182451394667
H           0.16811166107444    2.51938864511833    2.25102132078450
O          -0.68919709040948    1.18835205836917   -2.40414294500000
H           0.20020668846673    0.87219680541430   -2.12396630174525
H          -0.83848314547847    0.82633826890009   -3.27924385288670
O           0.61414685362796   -2.42516341060937   -0.81873090756879
H           0.99125479647403   -1.65679694182065   -1.27379317436736
H           0.73405888496094   -2.21906937351465    0.13100412243562
H          -1.00300600676042   -2.50909080508817   -0.87549719570461
N          -2.02949120455967    0.18925950986854   -0.28660742122866
H          -2.09931726971278   -0.83940685247848   -0.49601252088616
H          -2.94421931209619    0.57667660138698   -0.08090881331664
H          -1.38634363263528    0.34055194466017    0.56201467575861
H          -1.59462804445593    0.66675907208967   -1.11065096457509
