    26
        -50.46794332  Gyration_radius:  2.46423141063 Dipole_moment: 2.601
 S          -0.30464415194688    0.28783576625500   -1.79555981671302
O           0.04363530224729   -1.00426447275786   -1.22471080391795
O           0.57857075940920    1.33702622948546   -1.30335568195693
O          -1.70001075699410    0.63372703176299   -1.65155655769919
O          -0.03262570343315    0.14635361617855   -3.34881504624542
H          -0.52213038624194    0.87617922246203   -3.71391623345128
H          -2.26888445045087   -0.42956440299701   -0.43043237260552
O          -2.36610450067111   -1.08218618322308    0.28958327065262
H          -1.84647073799929   -1.83814058845884    0.00648857633667
O           2.30067265208684    1.74847098975602    0.71712009260018
H           1.85368029662272    1.68786641780245   -0.14869880824199
O           1.57344367799446   -3.04102172938700   -0.05904640110526
H           1.89478735694809   -3.77641321073560   -0.58183369150520
H           1.04539563479440   -2.49058324919321   -0.65492907452407
O          -1.14524925257445    0.17161986912751    2.33081692710650
H          -1.75452452265913   -0.35426454827679    1.76982188017703
H          -1.15039587568717    1.05910338534136    1.91790230603813
O          -1.04671147309563    2.25703188245996    0.60457566411985
H          -0.43100174872705    1.99663941559212   -0.10681731491146
H          -1.91352028978528    2.22056815530297    0.19186275251771
H           1.87085053676810    2.47491235073851    1.17536866332012
N           1.08461345064683   -0.58674647848164    1.22604910719323
H           0.71758724278494   -0.72240179521929    0.25721506414253
H           0.23374666967466   -0.35462524168354    1.84044268808530
H           1.55292549778098   -1.45061044833125    1.49303564131929
H           1.73236478248442    0.23348804651976    1.19938914926511
