    26
        -50.47163766  Gyration_radius:  2.37113485165 Dipole_moment: 7.010
 S          -0.83754086452462   -1.15786687878783    0.56898045019086
O          -1.94731088112683   -0.51676792656214    1.25937486173110
O           0.44436303640936   -0.61219720804808    1.02710318850545
O          -0.95725667179912   -0.98081003974224   -0.88209969053423
O          -0.86860259814214   -2.65881772079470    0.88795713643833
H           0.06830642400690   -2.96543557034022    0.68335205711500
H          -1.15827383132011    0.49862617621093   -1.41626513571731
O           0.99034497393525    1.92470089003622    1.75140642419890
H           0.91024117382463    0.95496648922132    1.82566122728338
O          -1.20892018159770    1.46352234851479   -1.66293024831010
H          -1.75023178573582    1.50467318190890   -2.45266744779517
O           1.60811518065873   -3.01593344380707    0.35046980012396
H           1.84199329636100   -2.24846737110761    0.88490122934941
H           1.66119612915870   -2.70409817234379   -0.58525526804628
O           1.40260420038067   -1.68245939042160   -1.94124729665200
H           0.46752308826073   -1.50308883694531   -1.72471131867294
H           1.85279088972150   -0.83267251580463   -1.84346708806960
O           1.52880814864571    0.98887179095045   -0.84807022246484
H           0.77759991598750    1.31302827005523   -1.35798361559017
H           1.53270517722392    2.04770927433229    0.95756082942853
H           1.16211058626169    0.33222595244124   -0.22393719078434
N          -1.52063723859874    2.00439777414301    0.95491895179199
H          -2.18069580733226    2.65827658068858    1.36161100055927
H          -1.49818730517200    2.06355530665502   -0.08370565879827
H          -0.53373638044298    2.14079644378387    1.33373618450220
H          -1.78730867503979    0.98326459576038    1.17530682021281
