    26
        -50.46116974  Gyration_radius:  2.61861474875 Dipole_moment: 2.796
 S          -0.99162396113197    2.03710762911307    0.71273581035395
O          -0.79694587769922    2.40853632407441   -0.68321510491840
O           0.11488195633260    2.35704992192557    1.57574539513630
O          -1.37542316953909    0.62633348431198    0.82580412839092
O          -2.24162333152932    2.88473179673991    1.19939185974123
H          -2.71105105631608    3.03825367071379    0.38529445868094
H          -0.35604094212638   -0.15185765133765    1.82519145506934
O           0.30843426662791   -0.64734043479420    2.36802194526796
H           0.19847462769943   -0.32323844988242    3.26314141126013
O          -0.99762652956689   -1.41477611569310   -0.89503605745270
H          -1.40731844975662   -0.75624051659693   -0.30357213339241
O           0.22471815888548   -1.21472152776420   -3.47737290557663
H          -0.10414816491343   -1.62252373509095   -4.27897069741003
H          -0.38887596940844   -1.46131493752831   -2.77138771653412
O           2.16504599260775    0.78910263251158    0.94540928492155
H           1.80975874677501    0.07886707480545    1.50574907074200
H           1.61552868591971    1.55777633068388    1.20382647711730
O           0.17164804443494   -2.98114260830098    0.97306563178682
H           1.07499166406758   -3.28295240634664    0.86670218083438
H           0.19739799854483   -2.24525180577573    1.61241996838268
H          -0.66488966905220   -2.11761010731507   -0.29958280594555
N           0.85720106677637    0.48813999931879   -1.32894137705834
H           1.55822713053952    0.55051226938796   -0.53925353816754
H           0.23239426296241   -0.34688004022753   -1.18982277476798
H           0.22979974451749    1.33330608410258   -1.24233291162421
H           1.27706477431980    0.41613309884221   -2.25301107475048
