    26
        -50.44694182  Gyration_radius:  2.49327738461 Dipole_moment: 2.955
 S          -1.81648515913710    0.78229657926535    0.57527286082052
O          -0.99203450609465    1.34860162160552   -0.47317225026557
O          -1.30814439894190    0.98165940293187    1.91049794041472
O          -2.10542995600238   -0.63217443960141    0.30506121538778
O          -3.20969277181643    1.52719370965555    0.50914828564553
H          -3.51856439493412    1.38363221711966    1.39685805684598
H          -1.11910365074704   -1.64588897073058    0.45985896558433
O           1.30092417548549    2.79460668904642   -0.58167735609197
H           0.38922169571998    2.45545850881139   -0.54132972232697
O           1.82696264260926   -1.17540204586448    0.41398452663543
H           2.54481706736518   -1.65738975172820    0.82531991128998
O          -0.37712046103873   -2.39039957057667    0.34957247397000
H          -0.47756433364365   -2.60296071340449   -0.66187029675411
H           0.54871913811575   -1.91036996427334    0.43163052231830
O          -0.68420021382011   -2.45343266573963   -2.15707647146770
H          -1.60277212582431   -2.21455428162253   -2.30119477714703
H          -0.16151303941811   -1.60966522392313   -2.26195839239977
O           0.61915000762550   -0.19856425487981   -1.93628480101993
H           1.27982983364374   -0.43229858190033   -1.26960594671043
H          -0.01356095522531    0.39592998884534   -1.48234936173315
H           1.62544065111952    2.54907368180223   -1.45063269144481
N           1.46505529994451    0.99636273716722    1.64372222504622
H           1.97792064497986    1.18970401429768    2.49391157129043
H           0.46314887415295    1.02244653032487    1.85593130863767
H           1.64077541037306    1.75189384303819    0.97902244138264
H           1.70422053537267   -0.25575905968494    0.96735977207997
