    26
        -50.46166039  Gyration_radius:  2.56752782705 Dipole_moment: 2.788
 S           1.10462727464415    0.50087680858759    1.96160440196536
O           1.75413265787840   -0.02735042752544    0.76302477211793
O          -0.07335639193752   -0.28550704954525    2.30892527117465
O           0.88579945163070    1.92335537088164    1.90301188249697
O           2.12903471317074    0.25401093898152    3.15542385331168
H           2.69826243679607    1.01767839927866    3.13133997026124
H          -0.83804814651459    2.12334166333388    1.69420038906369
O           0.70728236512372   -1.09168247501356   -3.02838514032407
H           0.78914313229476   -0.86067751140750   -3.95389380231312
O          -1.75124903382944    1.16532238666627   -0.95801714842489
H          -2.35686013072467    1.77386455139302   -1.38358990336196
O          -1.46782964718317   -1.48366755862447   -1.55398226811147
H          -1.70603265147360   -0.55512836242505   -1.36808515063330
H          -0.77236532556786   -1.43594574957772   -2.24871094429786
O          -1.72515292909674    1.72612308749891    1.59666747060132
H          -1.78759401819829    1.37818418942932    0.01513680549075
H          -1.61880634289704    0.88012149757913    2.05244958700566
O           0.96982009142813    1.09150588361663   -1.56419972879451
H           0.03680351165593    1.27140206069838   -1.36240472930925
H           1.37412003664760    0.81868019854952   -0.72149631592091
H           0.92414263271139   -0.26755817054836   -2.52017693826189
N           0.14017901163080   -2.02570745787525    0.41036068192537
H           0.36479982205590   -3.00595437502556    0.53907193330750
H          -0.19433503580578   -1.56558532251272    1.29299956570769
H           0.99068697724816   -1.44539809712854    0.23112913867942
H          -0.57720446168619   -1.87430446928358   -0.39240364336050
