    26
        -50.46071439  Gyration_radius:  2.58326893338 Dipole_moment: 4.702
 S          -1.44700210743888   -0.09678221968252   -0.79710648231635
O          -1.87954501460856    0.02771637158422    0.59165745674345
O          -0.41392207522513   -1.11676966489259   -0.95428068055875
O          -0.99696465679266    1.17765694632746   -1.33499988590562
O          -2.66700511734928   -0.58379190880467   -1.63656529168015
H          -3.39388166598904   -0.01003072174027   -1.32063854752666
H           0.33681874919900    1.86710924857408   -0.92016920193360
O           2.16423073621028   -0.87745466571956    1.85470637932652
H           2.78817561805916   -0.65569839302070    2.54674759673620
O           1.22442055330496    2.21843915456711   -0.61791804437291
H           1.29657579066757    3.09724755461430   -0.99296162980380
O           1.46174382697544   -3.02590550282173   -0.04778746317535
H           0.62884088791498   -2.67141339511831   -0.38265341874080
H           1.54744579941228   -2.68912931750536    0.84929540707953
O          -4.23282088884784    0.91007329968411   -0.12164024803765
H          -4.92792181832207    0.44963810964767    0.35422905423852
H          -3.40370417288019    0.74808568575541    0.37514035116743
O           0.30664594699020    0.96031010081570    1.78456770033048
H           0.60929028415191    1.59893461832960    1.12525235743908
H          -0.54357506486780    0.60924148352960    1.44839614600109
H           1.40336732123725   -0.24246262564992    1.94854134180073
N           2.06167140904960   -0.33079874719349   -0.76711555337213
H           1.06056308124412   -0.67880138276700   -0.92752872648754
H           2.30103721335694   -0.62888712223931    0.21023381028341
H           2.68587286634890   -0.76105082263422   -1.44110721422030
H           2.02964250811496    0.70452392640375   -0.82629522297700
