    26
        -50.46071441  Gyration_radius:  2.58337117373 Dipole_moment: 4.701
 S           0.95123411084972    1.30637133923856   -0.35766193555358
O           0.82488669444930    0.17458997081164   -1.27169893246166
O           1.48042143282321    0.89867873967182    0.94044305191457
O          -0.31861090434346    2.00340205792907   -0.22415102506355
O           1.98122444348357    2.27731868352853   -1.01077168637169
H           2.20679886654015    2.88386736460614   -0.27684573842812
H          -1.65209651346278    1.29902312794520    0.16574731565710
O          -0.61930847195054   -2.86936695383948    0.52930373309587
H          -1.07236168400249   -3.52334598074537    1.06261170958586
O          -2.46425896033730    0.75764961119217    0.38921995350238
H          -3.16682558424211    1.39264690449083    0.53512969339250
O           0.88449299902542   -2.55665994035254   -1.99456000681794
H           1.19255309500799   -1.64905934953663   -1.88116122095154
H           0.79338683805121   -2.91473008765162   -1.10629130000289
O           2.47617308273697    3.27275399977231    1.38537602422362
H           3.38386190810812    3.20922491376244    1.69136224851882
H           2.08044312491418    2.38457235708915    1.50766246328246
O          -0.46804311136646   -0.64221032981076    1.88954525011775
H          -1.24352645761681   -0.13119535510997    1.62189254231018
H          -0.45500971177513   -2.08761863363990    1.12323971264833
H           0.30955807288631   -0.10615214403015    1.63038305272509
N          -1.45466434978191   -1.08418568738743   -1.28703457262995
H          -0.53106461100341   -0.54573170523117   -1.36566737635829
H          -1.77484480042920   -1.35176893674710   -2.21162991444962
H          -1.22928701985364   -1.92989598526159   -0.70808207372921
H          -2.11513248861492   -0.46817800068159   -0.77636094821800
