    26
        -50.44689598  Gyration_radius:  2.49194780419 Dipole_moment: 6.879
 S           1.52046087747748   -1.62927311713978   -0.93015956013076
O           1.81130386501843   -2.64014415111113   -1.87645894915382
O           0.28119214270109   -1.78263523390670   -0.18982519285237
O           1.45170242449417   -0.22841128157972   -1.62881802869726
O           2.67734842918005   -1.41605956977820    0.05090526919116
H           2.29155718350849   -1.23060935595239    0.97708899923559
H           0.59915922370259   -0.28676038674313   -2.16893740897065
O           0.43100368049843    1.42263144516440    2.17701755634376
H           0.90372897953886    2.06538160595484    2.70764195160567
O          -1.96705780360033    1.41855516277196   -1.13292884972081
H          -2.80215550980787    1.87688263431084   -1.23016319773423
O          -0.88292739192937   -0.59604208845890   -2.54640491208331
H          -1.00793664164663   -1.33806270066288   -1.94527579531969
H          -1.36360112625885    0.16825410510246   -2.15780139481330
O           1.37626327216409   -1.07643554883924    2.19176860603989
H           0.67058775761801   -1.55075709610189    1.73173483519362
H           1.07185501158086   -0.14068897291112    2.26231763595316
O           0.61021212407713    2.12008297408627   -0.36020840629993
H          -0.28972763648447    2.05895435196676   -0.72156724539656
H           0.51363016128287    1.72751124182180    1.23549796277514
H           1.12223453904606    1.44187609918449   -0.82254539936335
N          -1.84313815375661   -0.14540497935344    0.97117028489067
H          -2.02003867592900    0.86262022721870   -0.29303649474612
H          -1.19420069745600   -0.83704446276564    0.60029990441587
H          -1.34988937011913    0.37317266582349    1.69082914018688
H          -2.61156668484187   -0.63759357816098    1.40785871948296
