    26
        -50.46134455  Gyration_radius:  2.5146852624 Dipole_moment: 7.810
 S          -0.29345087688201    0.10288918286987   -2.19939315391363
O          -0.68771455953570    1.29389120088781   -2.87436904185978
O          -1.26213076836087   -0.43141291460119   -1.24828137515699
O           1.02292000841518    0.23153224718671   -1.53760592356816
O          -0.09929966553690   -1.04053187496823   -3.28224148679016
H          -0.11662489107763   -1.84274660049373   -2.76892074453215
H           0.98203757587496    1.94735397889202   -1.29361380459070
O          -0.54584421962037    0.69172509710699    2.28259836538974
H          -0.58166086318640    1.31340607887899    3.01015365046820
O           0.69689019102256    2.84912421648609   -1.05842553660210
H           0.27930522353780    3.17377774758927   -1.86198419231786
O          -1.39998937387634   -1.77178441302958    1.06513471514372
H          -1.35932732062213   -1.02433607706883    1.67573124512269
H          -1.46223531684405   -1.36628574419824    0.17850541637504
O           0.95712371541665   -2.89635309253998    1.19413031995956
H           0.00533229883329   -2.61591717811266    1.10556298567750
H           0.99702443169094   -3.47265360887750    1.95834159611895
O          -1.47165450395389    1.82535870300575    0.17793819839250
H          -0.74554577773455    2.36110484092318   -0.20768268377323
H          -1.58902086499991    1.07289147161337   -0.42989249602438
H          -0.97251198567280    1.16380556043745    1.49485386852211
N           1.54896543797078   -0.30833160694519    0.94030391158235
H           2.47010504279419    0.05634538478171    1.15701248290792
H           1.31945247138549   -0.10391546472084   -0.08757774323251
H           1.49891633429233   -1.34825591314690    1.07380590750447
H           0.80893826666353    0.13931877804213    1.53591550917983
