    26
        -50.46134452  Gyration_radius:  2.51463302124 Dipole_moment: 7.805
 S          -1.66460397315547   -1.43839337182367    0.31132198887613
O          -1.98176037372466   -1.99310694751180    1.58458984454001
O          -0.34818818112440   -1.78281353382151   -0.21482820262668
O          -1.84020187080960    0.02951501906357    0.26917702898634
O          -2.69841854210833   -2.00688901760296   -0.74964125269075
H          -2.27924366393273   -1.83512358422193   -1.58757264433286
H          -1.57669074143373    0.33268512521956    1.95539748214054
O           2.21812591546059    0.87949153001912    0.54165611839116
H           2.85856369703057    1.32088030135371    1.10033929407833
O          -1.20286280321371    0.33335903897965    2.85546587780467
H          -1.63314437492465   -0.41383048727821    3.28219547857429
O           0.39723132781312    1.11022681570318   -3.05651717109695
H           0.85616332287081    0.30564503759902   -2.68994900158870
H           0.99843346058530    1.49393649348427   -3.69607614903310
O           1.61945392374817   -0.78249072214616   -1.72934294953960
H           0.92613837942195   -1.27318803060008   -1.24658866660731
H           2.12280963371205   -0.32692489757269   -1.04211011779160
O           1.00477055483323   -0.90667604344260    1.92336534527243
H           1.80953530434390    0.15015669411511    1.11310706269500
H           0.29328104061355   -0.45328241521636    2.42456449285916
H           0.54737851223502   -1.42619018145204    1.23749749017677
N          -0.08246802459210    1.76251858169315   -0.51559878446679
H          -0.80559977042130    1.03203328423140   -0.20838334084906
H           0.03260507735633    1.67396237710372   -1.55514603488277
H          -0.40474823342143    2.68622746608989   -0.24848194155620
H           0.83344040309847    1.52827148811646   -0.05844124730327
