    26
        -50.46862452  Gyration_radius:  2.5642407791 Dipole_moment: 2.418
 S          -1.93539777864068    0.17679528581637   -0.84381719218628
O          -2.17759645506180   -1.01668966014733   -0.07582258077430
O          -0.70243936414056    0.08642076231189   -1.63342651856078
O          -1.96794647998829    1.39923639346789   -0.05683415080322
O          -3.11796702687138    0.28839938927306   -1.89257480386491
H          -3.01491172371335    1.15021594843277   -2.28656123472979
H          -1.08613225687745    0.85026663570907    1.21919842994192
O          -0.52077215460253    0.39455669906836    1.88584110455530
H          -1.12856814731048   -0.11906993772258    2.42195262538372
O           3.34315061070675   -0.26301535343812    0.20509970931238
H           3.80451428918212    0.07012136328111   -0.56575923494425
O          -0.80740494743465   -3.29819656209560    0.18280325631020
H          -1.14249517199629   -3.95704729991652   -0.42638266413956
H          -1.42975850406785   -2.54304057819397    0.13713841630900
O           0.41366077803568    2.43038004435661   -0.94409791015697
H           0.17101255498518    1.59310085474956   -1.37784947836669
H          -0.39581869299696    2.68486248267895   -0.48556648911779
O           1.93825312971936    1.74679693928357    1.18277196505790
H           1.22159229602810    1.43876713494621    1.74833396223340
H           2.96775974114632    0.53207394888348    0.66297258440570
H           1.49799738591488    2.10961183398402    0.38428189328927
N           0.83902307472123   -1.17009501415513    0.10874987751299
H           0.43873279008590   -0.66714218822531    0.92968504325122
H           0.55537645938057   -2.16252541693353    0.16352380119275
H           0.36059921983199   -0.74612383999894   -0.72101142925725
H           1.87553637389907   -1.00865986547229    0.07735104812939
