    26
        -50.46995685  Gyration_radius:  2.4046128755 Dipole_moment: 4.970
 S           1.12293067805662   -0.79617444114498    0.55970961779876
O           0.53051115637937    0.47793831607121    0.95121163677699
O           2.31700096144691   -0.58610426716710   -0.24852721399482
O           0.13473556034965   -1.60393791518062   -0.17014590543617
O           1.53800413280531   -1.56589345198712    1.82561714358354
H           0.75517105694537   -1.49596967738881    2.44740960508833
H          -0.28552127777765   -0.95954003555066   -1.55645590154249
O           0.42992741124770    2.90726886765723   -0.19496844294033
H           0.64177690795594    2.28460143068399    0.52373599656071
O          -0.53429851303617   -0.46105284154380   -2.38444614322946
H          -0.73650686420381   -1.12905303915129   -3.04116658051245
O          -0.59398901477086   -1.47330919512204    3.27485752729899
H          -0.76255612871006   -2.33274945966760    3.66741615186198
H          -1.28528483747676   -1.35010363512233    2.57325579596152
O          -2.15507687648114   -1.32327029940965    1.16103963087277
H          -2.41035434168071   -0.43496592335774    0.87498237982252
H          -1.38225148017340   -1.55730708979265    0.60728580107850
O          -1.73889124435790    1.11371981139283   -0.28843589626296
H          -0.96031922392718    0.84261485220073    0.24207941493633
H          -0.52674784840443    2.79793218058124   -0.31145196903743
H          -1.64595515098796    0.65785590543926   -1.13286823336265
N           1.52190979989546    1.21710002074947   -1.90501860606453
H           0.73538783620640    0.69605566909998   -2.34281626427416
H           2.18506886866593    1.55494866984241   -2.59413333724246
H           1.12662248924625    2.00873437442770   -1.30859115578797
H           1.97870599277589    0.51066115343863   -1.22957503194435
