    26
        -50.45759416  Gyration_radius:  2.57468964921 Dipole_moment: 5.989
 S          -0.32809608108145   -0.34303896491485    2.56227718406790
O          -0.43081634443819   -1.53968814994254    1.72160350284088
O          -1.56553435743845    0.34595370170522    2.75525641658198
O           0.73987933135155    0.52140308760122    2.05659448802807
O           0.16893073418200   -0.85798343812987    3.98297061052617
H           1.01421037367205   -1.25764909265201    3.79814539711004
H          -0.27093406769112    1.51559041311195    1.31785682991901
O          -0.79266640602585    2.03216461757581    0.65006108980865
H          -1.52235387313198    2.39618882695521    1.15600527890474
O          -0.49184023990249   -1.51502944894759   -2.18796804869642
H          -1.00327961442961   -2.25647519349588   -2.51282206435855
O           0.44740632506454    0.75672876238263   -3.25118883221503
H          -0.34296461940135    1.26378091903382   -3.44614670148806
H           0.14325727052792   -0.14943781446283   -3.02780011466724
O           1.39159711275826   -1.39888579053962   -0.14732435521802
H           0.87751031743330   -1.70869070243001   -0.91160765620139
H           0.78232649606199   -1.48939744935634    0.62669228719850
O          -1.80675598792072   -0.38488515377082   -0.25255365276137
H          -1.50520546535148   -0.89058208602666    0.52745117660984
H          -1.60944981424691    0.54236487127078   -0.03436629855716
H          -1.04822962169725   -1.08326208282898   -1.47649927858265
N           1.44295463034636    1.12349808482433   -0.78704748022652
H           1.17507017802384    1.08809271106227   -1.80162598298428
H           1.47587358132124    0.09830643188907   -0.41639589371945
H           2.34289276268064    1.56732073542837   -0.64134403157969
H           0.71621738932840    1.62361218464674   -0.26022388031952
