    26
        -50.45759448  Gyration_radius:  2.57463361747 Dipole_moment: 5.986
 S          -1.63770876276757   -1.71136647146907    1.08629767380609
O          -2.85255672909731   -0.95899287988551    1.05203320162944
O          -0.60458990065948   -1.14574633330100    1.95930500765458
O          -1.07546435987559   -1.95825710669379   -0.24275254839573
O          -1.97043818071304   -3.14560084658772    1.68878582629361
H          -1.14012298903663   -3.61128035600697    1.64203720659247
H          -1.71439928038709   -0.63483894850797   -0.87280274199169
O           1.78606838788955    1.78644642588083    0.97135405540468
H           2.02739959862347    2.29071466007510    1.74871162808979
O          -1.86636032362848    0.25946932862223   -1.27528221089902
H          -2.80746873623671    0.40869968872627   -1.16182060352119
O           1.62109182936024   -0.96321680494259    0.60029843421092
H           0.80455385977102   -1.13873844728610    1.13039070345471
H           1.92852780605398   -0.08844829586304    0.89136808842436
O           1.94130028782057    2.18388402008157   -1.67275649942575
H           2.04782708099922    2.12665122101778   -0.69855069539791
H           1.33138289599755    2.90655406514959   -1.83299016787807
O          -0.77473779893815    1.34960238817026    1.02811761825902
H          -1.23242986055322    1.15411713470981    0.19228224211672
H          -0.83307907802310    0.51937984195963    1.54053137916149
H           0.79174678754438    1.67601141668648    1.00859353786763
N           0.84600302631513   -0.26258174350233   -1.78360497186268
H           1.09964632705468   -0.92305533315946   -2.50992308258998
H           1.12529543749099   -0.66484273091778   -0.80916637919026
H           1.32962957613825    0.66223750207309   -1.89822438272134
H          -0.17111690115700   -0.11680137502386   -1.78223231907925
