    26
        -50.45759475  Gyration_radius:  2.57451216494 Dipole_moment: 5.985
 S          -2.11366423155983    0.63497515179974   -1.38498754560194
O          -1.22790503948023   -0.37814259157058   -1.96680654300351
O          -1.78663594648680    1.97815303438443   -1.74843111051318
O          -2.20279422781017    0.43557151092836    0.06266630724081
O          -3.56354331914678    0.31567036757381   -1.95629292314623
H          -3.74057919770237   -0.56878918502101   -1.64832568648485
H          -1.16802842208128    1.60914029509860    0.39318587117381
O          -0.37881707948151    2.14158321454878    0.67329207266323
H          -0.53268595084513    3.00641045484477    0.28706912034736
O           2.28511078617450   -1.34349942668458   -0.54581368004305
H           2.86020475439816   -1.63060957358021   -1.25545575451274
O          -0.38330629353774   -1.94108585783076   -0.04896787256474
H          -0.79517181508242   -1.41060807173353   -0.77519203145808
H           0.55105829229974   -2.03188294010615   -0.30035360491360
O           2.64246045877935   -0.59310523943489    2.00022696204968
H           3.13051319708743    0.22974264232872    1.93182963674296
H           2.64735928593744   -0.98979832281247    1.10225943987243
O           1.05957095700299    0.82175976542962   -1.29511621172908
H           0.70755266145327    1.41845176491525   -0.61217478339208
H           1.86586142789903   -0.48876323515241   -0.85541594083849
H           0.26727730901875    0.46783586826052   -1.74479949925869
N          -0.02690714835014   -0.32933423487679    1.96344225608807
H          -0.29442199462564   -0.99014453786530    1.13813174970829
H          -0.21135453322652    0.63603340431211    1.66393851770338
H          -0.59143276890373   -0.55319045929496    2.77541061757606
H           1.00027884836442   -0.44637380847373    2.14668061628424
