    26
        -50.44868289  Gyration_radius:  2.4836342709 Dipole_moment: 9.439
 S          -2.17696419296653   -0.46142605520223   -0.58810106469227
O          -3.47140524554686   -0.94664292990505   -0.25803874200609
O          -1.11192115759225   -0.85310015250914    0.33854038925224
O          -2.19923511716031    1.17044442988826   -0.43863651267673
O          -1.74306700626580   -0.64192033817450   -1.96797213767303
H          -0.25991338818756   -0.76636138054953   -2.10934463389646
H          -2.29041036306636    1.28604417699504    0.53464129844767
O           0.74774175284228   -0.67164179343931   -2.24264494754562
H           0.88211492472987   -0.70723934949413   -3.19131792571258
O           1.19482678668674    1.33437959438524    1.75116647489491
H           2.03645681919041    1.61567250531526    2.11158743119439
O          -1.72077836327029    1.00362530940727    2.12665038486273
H          -1.58278507006213    0.09985864720135    1.78966854673906
H          -0.83510931103208    1.34194349788261    2.30745487860938
O           2.36849784551960   -2.05594257750695   -0.51276604612629
H           2.18604456816791   -2.99328097872141   -0.59840903069485
H           1.78480817971311   -1.60408757424656   -1.14940812402204
O           1.10903119987864   -1.22461269390717    1.74097798449403
H           0.22903486613483   -1.28392398834220    1.32500401616324
H           1.72144355353164   -1.54034203936892    1.04692140149436
H           1.18069108162189    0.32146249149586    1.83116443649191
N           0.40821128038712    1.53292735212183   -0.77766087772762
H           0.79264953281808    1.48105134294627    0.20950555561376
H          -0.64356717414016    1.45104229255084   -0.70919301435495
H           0.66892740948536    2.40622681580630   -1.22529105655633
H           0.72467658858040    0.70584338537389   -1.34449865457227
