    26
        -50.46163561  Gyration_radius:  2.55679575155 Dipole_moment: 2.236
 S           1.08486433121700   -1.83850445147557    0.93198108205726
O           1.28921079462629   -0.59057610459365    1.62972117916688
O           1.25344938990030   -1.65693744126300   -0.50899079081095
O          -0.15114619105724   -2.52607734057386    1.25553686640107
O           2.24618431282842   -2.82037894124272    1.40016608340055
H           1.86132050322911   -3.67639796710814    1.24096508636111
H          -1.36044855664119   -1.61387354789818    0.73791767956455
O          -2.10123449666556   -1.00013327963965    0.49788879042967
H          -2.90248991594356   -1.52510696726264    0.53640957538166
O          -0.14065490560283    2.41738447024491    0.51125053409773
H           0.09946938786211    3.24224578603494    0.93408417824107
O           0.06364612578543    0.70030202153181   -3.15160055303547
H          -0.74714834196406    0.86942883364315   -2.60717518913588
H           0.04846847463470   -0.23672446501980   -3.35764575535886
O          -1.80822351350970    1.06296817536313   -1.32465251864342
H          -1.40518704198522    1.72607083137258   -0.74770310032292
H          -1.94617612192910    0.28230376661833   -0.76125974818934
O          -0.90305651783681    0.72248156215439    2.30051419314271
H          -0.46434164520596    1.81198401006708    1.24927869055199
H          -1.54961291307241    0.17628781371059    1.82503371765150
H          -0.06950468843193    0.20777756358645    2.25918297429076
N           1.54194611442152    0.87262466235239   -0.96482888687940
H           1.09334133979879    0.92634568839755   -1.92304204062416
H           2.51070164579572    1.17047577258646   -0.97385381572463
H           0.98072655736271    1.45519849512775   -0.30264337949643
H           1.47589585238425   -0.15916895670162   -0.68653486250807
