    26
        -50.47071288  Gyration_radius:  2.41593229472 Dipole_moment: 4.168
 S           1.68653467412833   -1.11104836458143   -0.18444227770683
O           2.06221527400433    0.26158194733963    0.05419138761807
O           0.97400508446594   -1.32473353085313   -1.43338535520159
O           0.96225004345463   -1.68540058067838    0.95123003595851
O           3.03714563651637   -1.92813584135343   -0.30682535511612
H           2.74100285486866   -2.76002554676752   -0.65997128587209
H           0.86838491204486   -0.48669727742168    2.07531621325957
O          -2.51815925929571   -0.02529821227289   -0.23039254100629
H          -3.46072673408909   -0.19492096094047   -0.22010184828663
O           0.88466451048082    0.39115865310168    2.52278639835589
H           1.68906571703119    0.79217849985289    2.17474474806235
O           0.67495895849410    2.37314709970407   -0.78885740317747
H           1.37396384663095    1.73298442256331   -0.54502927944226
H           0.20924677175757    1.93295331773909   -1.53924293324899
O          -0.64231826516738    0.65631989530449   -2.30475504115191
H          -0.01269456039670   -0.06957414852452   -2.13141651591170
H          -1.42777670266656    0.45704510196577   -1.77798144858018
O          -1.24500032171340   -2.28811824400032   -0.31511904814409
H          -0.69843843608156   -2.16031158844652   -1.10631592149206
H          -0.57503720276427   -2.22130747095886    0.39392452113037
H          -2.07466128486758   -0.92425607707791   -0.22598238887957
N          -0.92720604393404    1.72678060412389    1.13633684743633
H          -0.29067659809523    2.11334261691226    0.33793433133176
H          -1.39659367104350    2.47646689370752    1.63159184113420
H          -1.61498006811926    1.07912589335744    0.70621240843096
H          -0.27916913569646    1.18674288774228    1.78554993057001
