    26
        -50.45914010  Gyration_radius:  2.58596214609 Dipole_moment: 4.024
 S          -1.88117863928533   -0.77464616771901    1.22243989887257
O          -1.06648359452571    0.39621644188687    1.50787107083924
O          -2.04976589723028   -1.67981936642953    2.32018479149087
O          -1.46817154725073   -1.41222762343063   -0.03035043981701
O          -3.34343886904218   -0.17881660116201    0.90774702429884
H          -3.92293666173495   -0.76023042326465    1.39104860826259
H          -1.14110575964110   -0.59631244388857   -1.33893985805220
O           2.16351841014342    2.06128844394492   -0.44241971720357
H           2.37092716548414    1.46811926697218    0.29622871901012
O          -0.93035994936125   -0.03607894645720   -2.13649324313704
H          -1.47067347183666   -0.37768970298829   -2.84987391670405
O           2.42340464925761   -0.41722624002613    0.78309025311554
H           1.69597716683257   -0.97823612216598    1.13000300173756
H           3.23274547701311   -0.82610194690791    1.09312794808568
O           0.55127124678573   -2.17702575365284    1.53994695038266
H          -0.07884112108301   -2.11135064668741    0.80471841737359
H          -0.01223539428699   -2.14110056097789    2.32053122755452
O           1.88785688123942   -0.09278927818881   -1.98740939986603
H           0.93558623549314   -0.17899172449971   -2.14366415181813
H           2.24931878063282    1.47040926769266   -1.22385897360391
H           2.06053102496048   -0.51928210205644   -1.13427122649861
N          -0.45235334798577    2.00113316550962   -0.41584074345966
H          -0.95101727748655    2.88265910942338   -0.38149841540657
H          -0.70071825469083    1.45293129459969   -1.25691986207326
H           0.61336673570179    2.14114088701659   -0.39781222332723
H          -0.71522398810905    1.38402778344058    0.42241423993439
