    26
        -50.46896688  Gyration_radius:  2.40436279071 Dipole_moment: 6.655
 S           0.06987083093223    1.68014104065121   -0.60449533627633
O           0.11718607453747    1.71252582604726   -2.04495944747859
O           0.83316421775816    0.54221479978440   -0.07839509922270
O          -1.29594870370517    1.63511586553313   -0.07205333660328
O           0.74649710723456    2.97493663815331   -0.06965811092203
H           0.50900590609368    2.97279775344112    0.88347678083710
H          -1.80875253054644    0.16000546132223    0.00610624484545
O          -2.11783041665426   -0.79061329759965    0.04935353136024
H          -2.94883229506460   -0.80489661929582   -0.42831639083863
O           1.90458822849647   -1.72414164922353    0.90885354270678
H           1.98672512596244   -0.83726651014946    0.52264568203738
O           0.81914765657289   -0.62864412387861   -2.88484312279249
H           0.50023734262801    0.27902861580983   -2.63007951056796
H           1.77188642482449   -0.54170148585466   -2.95526991846391
O          -0.37553835911470    2.49784583301798    2.26829943028413
H          -0.13493503182729    1.63740428191538    2.64533745612546
H          -1.06541704985153    2.29849284551246    1.61315904024648
O          -0.13688853283023   -0.30604824337335    2.21263224493212
H          -1.03426228806366   -0.59215554344490    2.02161306677580
H           1.43095988873339   -1.56786084423358    1.73945271164782
H           0.19938846370446    0.06256870407290    1.36275910700168
N          -0.00251768347811   -2.16132888577476   -0.89520902312503
H          -0.20339487852446   -3.11459989921064   -1.17753674629649
H          -0.85874910123642   -1.68504215119644   -0.51637459840496
H           0.75725653834325   -2.12073339157496   -0.15625732745498
H           0.33715307688798   -1.57804500194769   -1.72024090706974
