    26
        -50.46276846  Gyration_radius:  2.54072235731 Dipole_moment: 3.834
 S          -1.74479810716464   -0.57473049923346    1.51535082213291
O          -1.08433205517164   -1.60929946404547    0.72074142454742
O          -1.91814954570478    0.65111237383175    0.74024937971053
O          -1.14173583138581   -0.36274404212607    2.80227366392679
O          -3.22141193303107   -1.11060026431777    1.79388924953994
H          -3.17447976654905   -1.44830818705454    2.68345439707241
H           0.21741108355466    1.52904139649983    2.58209067202030
O           0.29203633509372    1.70778633284069    1.63974552337363
H          -0.58366841720295    1.43107187940081    1.28423306001079
O           2.27170940107331   -1.47718773930274   -1.36963278900913
H           2.04884077539880   -2.40860627985624   -1.41071593936313
O          -1.74457525710937   -0.54020880582782   -1.56611883524859
H          -1.50526319878334   -1.23090082696830   -0.91191445832494
H          -2.08390606577627    0.14928023598755   -0.96411427540861
O           1.57076993277252    2.27546093769845   -0.67851879301331
H           1.06563205815867    2.26604235745730    0.15416569189109
H           2.46298820001151    2.00978819128555   -0.44327281499353
O           1.41702557981622   -0.74736658109756    0.99328444282712
H           1.21371049144459    0.15858192876944    1.27937110864818
H           0.55175747054179   -1.20089036202971    0.99960139845632
H           2.08234361797038   -1.20409389538881   -0.43313271238540
N           0.60020492302961    0.35689268490029   -2.30243953064102
H           0.63891768705968    0.60054950500306   -3.28604336293489
H           1.27809013567492   -0.42101893706304   -2.07552011337597
H           0.87973331674187    1.17828482028177   -1.71163212647556
H          -0.38885086046749    0.02206324035239   -2.03539506297662
