    26
        -50.46287227  Gyration_radius:  2.64460353005 Dipole_moment: 3.025
 S           0.51258871627092    0.30446468882322    2.27860301050927
O           0.56341089926895   -1.04240117838991    1.73239363855615
O          -0.76557071785433    0.96013320113651    2.04979705460487
O           1.63791616667818    1.12304402500140    1.85562066783522
O           0.65106904761519    0.11973559821252    3.84962132441780
H           0.64577792866989    1.00796690880831    4.19338045375828
H           0.97428254600814    2.19176936684343    0.59801379763000
O           0.19921970855099    2.35931791796752    0.02868749348429
H          -0.52320315645619    2.08619130048858    0.62015157093344
O          -1.56648846480390   -1.43682897812226   -1.36871116426808
H          -1.32997139213003   -2.36274063773995   -1.45240937355194
O          -0.93369329312616   -0.09883663309260   -3.84964410145155
H          -1.54969542806434    0.12326794199858   -4.54837975294939
H          -1.43737240668964   -0.56601254027091   -3.16977220440920
O           2.50526248057067   -0.68168529040288   -0.00065419558792
H           1.86540929052591   -1.07101712231234    0.63238338624786
H           2.80972836820859    0.10033406398615    0.47770481891837
O          -2.00665987955488   -1.24764509069883    1.18930325934823
H          -1.86508246775898   -1.33220322487936   -0.41963798637699
H          -1.09663194953601   -1.48563684025442    1.45247011521993
H          -2.05693152997005   -0.32840224461245    1.49159711787729
N           0.56373885071232    0.25776978153082   -1.54488300027327
H           0.35899286112490    1.16789235492551   -1.04012955934161
H           1.43131497617412   -0.15389539924871   -1.10189814763493
H          -0.23609209058130   -0.39980512085344   -1.40307869658863
H           0.64868095613080    0.40522317115702   -2.55052951690275
