    26
        -50.46287220  Gyration_radius:  2.64495181079 Dipole_moment: 3.027
 S          -2.32874650253495   -0.35675335686691    0.04392611845200
O          -2.03570649865289    0.59132288857664    1.10742354950441
O          -1.45111108634109   -1.51616217029729    0.06167488893384
O          -2.39025020679314    0.27911081370085   -1.26277695064001
O          -3.77973283839495   -0.93136952673797    0.33713233839096
H          -4.34974969942260   -0.16969361644771    0.29017593013165
H          -1.37326822222563    1.72663454750984   -1.10828752717004
O          -0.72640725434695    2.18747412317849   -0.54047747836363
H          -1.05582843210377    1.94687522711179    0.34249251664245
O           2.00721301498430   -0.70580145099786    1.36628639851751
H           2.29425827914655   -1.61488374266826    1.25952562069891
O          -0.32381270729356   -1.18095760382438   -2.28826866679660
H          -0.67769575290038   -1.56276145758678   -1.45721971241391
H          -1.05299928485654   -0.61666759391160   -2.57631023174425
O           3.83195354516750    1.00966570821795   -0.07333139992379
H           3.42804745404194    0.51445446778822    0.65179230476055
H           4.55415101878922    1.51351488638151    0.30292816958824
O          -0.35492457908772   -1.03224469877704    2.40835488899837
H          -0.72250542642892   -1.51515429290468    1.64301597670923
H           1.14898493085788   -0.76516607064500    1.87700080586015
H          -0.88549919654879   -0.22151994825184    2.39300022005832
N           1.26170912847706    0.48796231386989   -0.97014452640597
H           2.14608612732489    0.84634819434858   -1.33024285821899
H           0.78258807219539   -0.19195752975469   -1.62331100324305
H           1.47702205378414    0.00202770146984   -0.07027409867424
H           0.57622405317045    1.27570218753417   -0.78408528365883
