    26
        -50.45360773  Gyration_radius:  2.42572107093 Dipole_moment: 8.130
 S           0.83590389642989    2.17225642527441   -0.17856747116722
O          -0.45949889946062    1.99914556624493   -0.89515358944824
O           1.76493804689826    2.97270774228873   -0.89917199066911
O           1.39968696406660    0.67822286073931   -0.09985837354801
O           0.60320503859341    2.52118424228671    1.21147328021765
H           0.35102944175564    1.20737008925062    1.98659443110955
H           1.09530748895282    0.28130549004967   -0.94312831581289
O          -0.00222052992079    0.37943878249643    2.43389381055013
H           0.14957038774184    0.49979645302812    3.37220439205015
O          -1.60995431398478   -1.67339607644536   -0.70657014253825
H          -2.01768476473404   -2.51877786559239   -0.89614641091402
O           2.30004907593889   -1.85294124350644   -1.05843701575870
H           1.78986363592043   -1.54677478158866   -1.81744879492107
H           2.82781789500389   -1.10379592462296   -0.76779064751528
O           0.16812998554291   -0.21090240154446   -2.26456124304687
H          -0.17654099602768    0.69553306590801   -2.18492050797713
H          -0.52798395912518   -0.78389351251550   -1.89590720803946
O           0.38066437639807   -1.98127038969809    0.89645239766664
H           0.47054941621063   -1.16418361203611    1.41191440805670
H          -0.84368211712742   -1.86391550707164   -0.07634952151489
H           1.15236335003494   -2.01933164319684    0.29677689151378
N          -1.96618917638573    0.65642999000433    0.63127393551364
H          -1.36181282617207    1.31354849184717   -0.02825138325186
H          -2.08840477722362   -0.24302549622865    0.12967179561282
H          -1.38183879129965    0.49618144240327    1.48082139048543
H          -2.85326782802862    1.08908781222103    0.86118590334588
