    26
        -50.46161848  Gyration_radius:  2.73579882752 Dipole_moment: 3.834
 S          -1.86462483106308    1.13405716896296    1.27713960232617
O          -2.32927422603187    0.67085970044419   -0.02860126006825
O          -0.56191569856222    1.75752455894015    1.20900361694878
O          -1.93470979615789    0.07300233842223    2.27119433129914
O          -2.88530560475104    2.25442463678902    1.73996231431069
H          -3.70941807072583    1.77814961716152    1.75715059959157
H          -1.00118592825980   -1.18726340373878    2.02053046302798
O           1.62820910153937    1.13391860129140   -0.24463705055407
H           0.92835845850302    1.75165328188807    0.02577099624058
O          -0.37508562275859   -1.92568533470604    1.78324701083902
H          -0.68719379138319   -2.69813953973534    2.25614589875835
O           0.36617822793003   -1.45785836444952   -3.22698809869247
H           1.12182765746346   -0.83370363785809   -3.19345988000047
H          -0.18529641142893   -1.17206431325101   -3.95676850495348
O           2.29445387207504    0.39692225845411   -2.82325495681261
H           3.23255133984071    0.20160232295677   -2.83748515915789
H           2.11127537770664    0.79556893046785   -1.95493244331684
O           1.46037960961315    0.18971311833743    2.22825645896002
H           1.93003608980464    0.77118304097803    0.61826766781581
H           0.71766919619433    0.81633884876811    2.19296638843510
H           1.04963433354797   -0.68484772774078    2.24890860841006
N          -0.26299084811509   -0.77395378482758   -0.68513994089245
H          -0.18355684053621   -1.19949986079695   -1.63206686481130
H          -0.22149576719076   -1.47264893830227    0.07377453275816
H           0.52318206208631   -0.09283910904428   -0.56196067791153
H          -1.16170189935105   -0.22641442964611   -0.55702366252640
