    26
        -50.46982063  Gyration_radius:  2.5006029342 Dipole_moment: 2.036
 S          -1.73619932311116   -0.02920833068985    1.21985969352643
O          -1.84719991768039    0.22597062656930   -0.22027587524101
O          -1.20833500906033    1.10956752140160    1.93078566935657
O          -1.03998675227768   -1.27548338197031    1.47579230558415
O          -3.21616586935251   -0.22615585517659    1.74743099769783
H          -3.40294437253006    0.64917256555122    2.06808773526389
H           0.53877831764743   -1.28575278150088    1.21651403406752
O           1.76125665052413    2.63579066707664   -0.73785818767106
H           2.70689240910547    2.61383603382579   -0.89190693923544
O           1.51118549125305   -1.25819149783674    1.01947821961423
H           1.92353403942624   -1.86083731007330    1.64060824516200
O          -1.40620888685507   -2.27202419270539   -1.07016795947207
H          -1.35734791006086   -2.68661358854419   -0.20318742500954
H          -1.71583422411721   -1.36773210987685   -0.87189341384811
O           1.09750544137280   -1.53970212009069   -1.67437560954999
H           1.44542170865165   -1.51747250489203   -0.76487204495552
H           0.21880210752178   -1.97866869938985   -1.59502155351759
O           1.41531905730711    1.46065451316546    1.56133791754806
H           1.62966996271635    2.30885381147292    0.19633648612907
H           0.46446665009167    1.45756324663565    1.78970957861904
H           1.63683341077514    0.52856403303483    1.40158866119415
N           0.11819134981971    0.87792664314085   -1.86594269837226
H           0.77299618090162    1.61591492079443   -1.49125186570065
H          -0.23316985603359    1.13708850998390   -2.78127071617907
H           0.60915921495294   -0.07693987784174   -1.89942822638206
H          -0.68661985098097    0.75387914793085   -1.20007702862619
