    26
        -50.46982063  Gyration_radius:  2.50058402915 Dipole_moment: 2.038
 S          -0.35296225378713    0.73549068126755   -1.95902925597567
O           0.90930241348481    1.42982125446457   -1.88462928165930
O          -1.24763170580625    1.10340757401151   -0.85645101008201
O          -0.24219276589157   -0.70541637491863   -2.08142522875904
O          -1.05479503459485    1.24496104705523   -3.28397905548685
H          -0.61639439403765    2.08034754588929   -3.40190215113313
H           0.61080226118168   -1.46050681767465   -0.95803219463169
O           1.12599553533429   -1.89340919643572   -0.22839296152689
H           1.54906535722882   -2.65840952554980   -0.62183606394248
O           1.73819186487527    1.49695990487511    2.30896058176429
H           2.24417024586351    1.03051873494869    2.97593345513477
O          -2.52333711845761   -1.23604207972341   -0.62319997609352
H          -2.22824682270536   -0.30983465659398   -0.71273384563866
H          -2.10342009117224   -1.67772341827871   -1.36777903787323
O          -0.99066484567033   -1.76816436246397    1.50698796082020
H          -0.17057878405650   -1.97460297639402    1.02368353804583
H          -1.68795200737177   -1.73155821633801    0.81160928411239
O           2.51590964816265    0.49269486370823    0.03449910373887
H           2.04470938780783    0.93478052095162   -0.69953772096030
H           2.12101838130200    1.21595487500687    1.43062565478086
H           2.17854175732379   -0.41811398824351    0.03531507391005
N          -0.76776717533330    0.82823823313288    1.72992788011818
H           0.19787113160482    1.13218619208449    2.02807186281399
H          -0.85847956668041   -0.24063890547169    1.78656227218187
H          -1.47957351918357    1.28277230475354    2.29130801785871
H          -0.91158188941955    1.06628677593554    0.71544308848388
