    26
        -50.46854401  Gyration_radius:  2.52404419058 Dipole_moment: 1.508
 S          -1.59438431854075   -0.96399526526733    0.20465442174514
O          -1.27309039278744   -0.03804040513727   -0.87577540211279
O          -0.86275237725254   -0.64005787963154    1.41494186412049
O          -1.46602889132860   -2.34391940704308   -0.21137951881957
O          -3.12163775488402   -0.73803313141179    0.55552751454767
H          -3.56204349190311   -1.11061756317424   -0.20075732598835
H           0.06943144136741   -2.56432945920355   -0.66833396171972
O           0.69224568506877    3.41645213936730    0.65405373559294
H           0.19082880703651    4.09630521731250    0.20148320227724
O           1.02446436559664   -2.64009994868195   -0.91627153225592
H           1.18875652099953   -3.57518540637594   -1.05034823006819
O           0.90235034444361   -0.50022364640504   -2.72334242517706
H           1.13111297790253   -1.32601696100492   -2.27024406513121
H          -0.02584719316055   -0.35494814750659   -2.50166039408576
O           1.79445571178964   -0.95406989194321    1.10918292507154
H           0.89452870659087   -0.93158844090939    1.48186473541240
H           1.76772168255533   -1.66672894962338    0.44757700044993
O          -1.09860412266057    1.93096198975638    1.98301660351005
H          -1.14461766725197    1.95365492164369    2.94036850813700
H           0.04743330030286    2.93991694987473    1.22459775315528
H          -1.05389183616727    0.97964687581961    1.74391687352386
N           1.12504074703521    1.03372943620732   -0.51156743456115
H           1.51039624992405    0.86877479307561   -1.45017598814018
H           1.57721882886435    0.37076957295710    0.17653927914206
H           1.16905294855403    2.02053064135576   -0.18157561739995
H           0.11785972798590    0.73711198590595   -0.57629252120884
