    26
        -50.46854479  Gyration_radius:  2.5253568877 Dipole_moment: 1.463
 S          -1.09435190656011    1.51209807601737    0.20109239552378
O          -0.46684419191085    1.32051421126515   -1.09297192461614
O          -0.35057210181444    0.83585718819927    1.25804391580406
O          -2.50152689166017    1.17581167643204    0.23059280805069
O          -0.99625003839857    3.06400548260235    0.49847886368121
H          -1.56963973500932    3.16301669750325    1.25090728199294
H          -2.61605815034046   -0.42453672341162    0.02885783521841
O           3.53785011576050   -0.25063790728037   -0.11088503158066
H           4.05821355220995    0.06991421824378    0.62726286774804
O          -2.62080005831943   -1.40343518072327   -0.11619367745564
H          -3.53817994573893   -1.64483924846243   -0.25587160132148
O          -0.88066898103313   -1.90178014914164    2.02467893906994
H          -0.80977694088661   -0.95510189815654    2.19957244778004
H          -1.57486749035575   -1.97078394938624    1.35171363941280
O          -0.51045972489562   -1.25825017166886   -1.86690376014167
H          -1.33075088127118   -1.51980684727766   -1.41426950004881
H          -0.52861012856271   -0.28405366731101   -1.86402689900622
O           2.12273762369747    1.84572667257499   -0.99418873298183
H           3.10234815049300    0.54202365945150   -0.49894504837772
H           2.31065270307274    2.23630268090537   -1.84944387955490
H           1.15465224430053    1.68131507450829   -0.98665101951934
N           1.04989197486519   -1.18987410465598    0.27522634600224
H           0.58425484840625   -1.36715857960466   -0.65690095813727
H           0.62781289135796   -0.29867034481856    0.64173573702791
H           0.76218496220529   -1.91404200508979    0.94566665075250
H           2.07875813033308   -1.06361486066046    0.17342228464530
