    26
        -50.45798185  Gyration_radius:  2.74784776323 Dipole_moment: 2.196
 S          -1.12426650768181    1.40279106914296    2.15234097430562
O          -1.13538839584831    2.24251912300137    0.95163349668973
O           0.21686547391711    1.03025507389181    2.53855915960634
O          -2.03511544701760    0.27683925672081    2.01740776933395
O          -1.71124050942952    2.30071119397085    3.32069371871312
H          -2.62015862718575    2.39225950499893    3.05316626097205
H          -1.57397894754930   -0.88456112774739    1.04419609990375
O          -0.13506841733360    0.73185972935907   -2.91962803529698
H          -1.03341060770201    1.01191128559473   -3.10134584678659
O          -1.18799616430572   -1.63196416607011    0.50939128174478
H          -1.52866424565455   -2.43533564666294    0.90671014248622
O           2.28388394849914   -2.23076444483742   -1.18699724814201
H           2.15798991276049   -1.77901879870095   -0.33906440457936
H           3.15489337241609   -1.99416902834385   -1.50674651984360
O           1.29773383792388   -0.69707133446562    0.90803243509071
H           1.08486822864520   -0.14085301351901    1.69103470237180
H           0.46339968849982   -1.18958684097467    0.75367433063419
O          -0.28111162880654   -1.75491813506292   -2.12566454839660
H           0.62182265111691   -2.06235536374859   -1.93837667026730
H          -0.73098665602815   -1.73622313055742   -1.26580509123636
H          -0.18636042679085   -0.24578299353663   -2.73012588450302
N           0.81904918118261    1.48802355218491   -0.56025594781491
H           0.46520262843572    1.26238422729883   -1.53150665701850
H           1.13668682418949    0.60508606657166   -0.07968774307889
H           1.57008793660875    2.16839111847233   -0.59548453364017
H           0.01126290714965    1.86957284302217    0.03384874876797
