    26
        -50.45798170  Gyration_radius:  2.74790549883 Dipole_moment: 2.200
 S          -2.12775146474880    0.56376734814094    1.73762910271813
O          -0.90473499793700    0.76574451947181    2.47941900006655
O          -2.24336445903001   -0.80777899563926    1.23502871057012
O          -2.34297295962367    1.53483893531484    0.67622962212286
O          -3.32678952133302    0.75995325910479    2.75726328358109
H          -4.07845913562291    0.74220295942533    2.17353038780077
H          -1.17573076490088    1.68107486508169   -0.38450241057072
O           0.24382312841135   -2.34014317737903   -1.88508267976422
H          -0.60719608341117   -2.45398391286376   -2.31093872662378
O          -0.37008259100276    1.81178573843778   -0.95672974582737
H          -0.37811916734872    2.73806017436565   -1.20431147650609
O           1.21259159465625    0.78313878697105    0.95377647616726
H           0.58407981844462    0.90723912989238    1.70031900343106
H           0.76977534491880    1.24876219840452    0.21247307674128
O           3.27095792855134    0.38727800568143   -0.86806984515483
H           3.97518422385863   -0.19590997033753   -0.58344312828168
H           2.74918229881485    0.60999495780371   -0.08250884454249
O           1.09029807318112    0.04388562829431   -2.54548579480674
H           1.95752233717650    0.17997991991655   -2.12798359898402
H           0.61115828129997   -1.48093643020813   -2.23304556371290
H           0.49240537096269    0.67216401149486   -2.10979418301702
N           0.13436264786254   -1.65002836286125    0.67628928645694
H           0.46223920241945   -2.35405571893162    1.32827250566437
H          -0.87366573540718   -1.37324627408562    0.91751965078964
H           0.70298486316679   -0.76658456261572    0.76303674397333
H           0.17230175664376   -2.00720300288087   -0.31889086228741
