    26
        -50.46852633  Gyration_radius:  2.47298850935 Dipole_moment: 5.569
 S           0.99025003951666   -0.04681690311766   -1.44112000210743
O          -0.40347027165801    0.40134302080380   -1.52851814644880
O           1.23892831107719   -1.30403879000542   -2.07246516383327
O           1.42866515419418   -0.00918290538737   -0.03876458058745
O           1.85028290873067    1.05408171470555   -2.17216399042207
H           1.67096384481740    1.84997467127985   -1.66301652833556
H           1.70519989566709   -1.49502860058391    0.76682008391714
O          -2.13135577565776   -1.07991124910339   -0.09583119494973
H          -1.76526304098166   -0.50687971974045   -0.79358587977470
O           1.64845763375043   -2.34384300366128    1.24919878779359
H           2.43714501530659   -2.83451986328950    1.01300283055072
O           0.06320253360028    2.80114300091087   -0.80961096740216
H          -0.30568925410257    3.39761591616518   -1.46455825791541
H          -0.21613416788249    1.88492435770151   -1.07924053756305
O          -1.14435381687193    2.67177460857234    1.62755673038831
H          -0.61409832995729    2.82982210321137    0.81880237800376
H          -2.04079076810372    2.94535357177243    1.42508725327274
O          -0.33303730858576   -2.95051635778714   -0.56867456177282
H           0.17168568471113   -2.51415541347866   -1.27609200228621
H           0.26927403588762   -2.95848298019276    0.19547651973062
H          -1.66418777356601   -1.93751189266434   -0.24800450329771
N          -0.57767958905427    0.02843339788027    1.66619227131148
H          -1.33009944968789   -0.46435086975212    1.06670182625814
H           0.27989893120149    0.05432213443804    1.05192685831709
H          -0.85386093323461    1.01491747448103    1.85589202079425
H          -0.37393351903291   -0.48846743308189    2.51498874628656
