    26
        -50.46825963  Gyration_radius:  2.51165425581 Dipole_moment: 5.422
 S          -0.50398187333426    1.02173733522648    0.30980375388075
O          -0.40207759799810    0.46504365052169    1.63707748269271
O          -1.33754370269155    0.15412790724234   -0.55325524872920
O           0.80610724386016    1.21748744359311   -0.31187864716878
O          -1.21454200694078    2.38616546600590    0.42378882416473
H          -1.32317737872698    2.77012491923755   -0.48894507868563
H           1.66568715655715   -0.11666720222435   -0.35064250638756
O          -0.41875391691438   -2.09685558235178    2.66536722914884
H          -0.86494149890504   -1.23875814807110    2.70065634584430
O           2.09973587434857   -1.01305163732906   -0.40314603589462
H           2.71859244546756   -0.96675582944341   -1.13370963285885
O          -0.23121697863741    1.05529588075829   -2.77886672140331
H          -0.80124767732458    0.55433858636437   -2.16454410693410
H           0.52888598971995    1.27542360499169   -2.21988888931598
O          -1.57206150820803    3.20763157127258   -2.02425881585697
H          -2.49472171383107    3.09154311390997   -2.26015422909879
H          -1.06572759880804    2.50750614194219   -2.50519545662973
O           1.88682741274212   -0.77606889770017    2.43966274790240
H           2.31582728923605   -0.94137998829268    1.59229776864082
H           1.21594197433796   -0.09483077224524    2.25543410551460
H           0.52212588513724   -1.85665661483918    2.82184402342282
N          -0.31045205962921   -2.15254274590912    0.05425798273661
H          -0.84992213216729   -1.27287621182391   -0.21782597101557
H          -0.66080019752066   -2.97195226879846   -0.43048459108279
H           0.68349753636756   -1.95821226120328   -0.18337277940420
H          -0.39206096611320   -2.24981746081928    1.12597846650865
