    26
        -50.47250229  Gyration_radius:  2.48702766195 Dipole_moment: 2.866
 S          -2.21180181197408   -0.30660144022104    0.39487149071308
O          -2.35994720067507    0.27233898770247   -0.93467407287967
O          -1.18484774475834    0.36609178095463    1.16729600322699
O          -2.04916810269994   -1.74713418114022    0.34674234789717
O          -3.57711728111524   -0.04423232090879    1.15439815127157
H          -4.15735633382853   -0.64606234853966    0.70101882257194
H          -0.61784226740877   -2.17652338345238   -0.20789870015359
O           0.48222584898809    2.43771522827416    0.70059655154216
H          -0.18667053502177    1.84448050858911    1.08966504472858
O           0.29962460843130   -2.42557065257383   -0.49471831484588
H           0.22934304041455   -3.30551335823196   -0.86771156749565
O           1.67540529460572   -0.35518751666204   -1.63120500629086
H           1.21504425817471   -1.15260134348309   -1.30764357886327
H           2.16837181312668   -0.01402240724138   -0.86325317234558
O           2.56534597240404    0.63440180773681    0.78031065004541
H           1.99450372150457   -0.03022495165202    1.26486023635593
H           3.39980539374317    0.66656632285702    1.24847187721624
O           0.94252990250085   -1.09123925744885    1.86403837030217
H           1.32752292442845    1.96487534776215    0.81012609555197
H           0.10693628549134   -0.58947751776863    1.77872744594095
H           0.87293005675127   -1.79022507743187    1.19745319995738
N          -0.18840662225117    1.51479774234382   -1.66704274522264
H           0.55352944927675    0.76684373031483   -1.80370926830915
H          -1.10628629440524    1.03385066523654   -1.43830559391446
H           0.08795682276807    2.06526845272304   -0.79867383990175
H          -0.28163120845704    2.10738519226307   -2.48374042707378
