    26
        -50.47114502  Gyration_radius:  2.41085613066 Dipole_moment: 3.641
 S          -0.79189292901037   -1.32180940679082    1.28446649366957
O          -1.80085426351430   -0.29679817231653    1.07635253551788
O           0.41191496957405   -0.82188549846274    1.92864707123185
O          -0.49723190875272   -2.06092204242737    0.06903131362340
O          -1.43670378032605   -2.35315153775959    2.29856376489258
H          -0.71583822331848   -2.95042178092737    2.46697577102093
H          -1.88850662156597   -1.48544036073018   -1.49475156914758
O           0.77196193169523    2.40471624966145   -0.15639130976834
H           0.90741780401146    3.35284726019278   -0.14308743349656
O          -2.22370662991440   -0.58103542143775   -1.47600051317186
H          -2.25278266143070   -0.38396472391891   -0.51219592519854
O           1.48981211112361   -1.30009165274346   -1.52496808416555
H           0.81534291526091   -1.75794510341959   -0.97915642770467
H           2.07785650540666   -0.86469881160721   -0.86276742866549
O           2.44910314268388    0.15620802860311    0.45940504676797
H           1.82345447310362   -0.24638026929642    1.09142056206293
H           2.09897323903989    1.03787608961282    0.27373023916330
O          -0.41318738389746    1.70629953806921    2.04830207909436
H          -1.20147055532631    1.22287426753120    1.74027528595033
H           0.15238394732404    0.97576334781035    2.34773837263641
H           0.29079775905457    2.18372347100558    0.69586421149964
N          -0.01702722393819    0.70410028659323   -2.14720614100741
H           0.67836613767073   -0.12488043194451   -2.00071173169294
H          -0.97842423214659    0.29668852092213   -1.94153448706806
H           0.21765101083431    1.43795401682505   -1.45093090006957
H           0.03259045514969    1.07037414595625   -3.09107077602238
