    26
        -50.47114511  Gyration_radius:  2.41076265551 Dipole_moment: 3.636
 S          -0.30704933949863    1.31002727201213    1.48789547844842
O          -1.61948034607463    0.95771372511943    0.97247907102854
O           0.52326553571032    2.00603653416583    0.51856998672659
O           0.37670324020207    0.17337281671289    2.08066503709084
O          -0.57352986114418    2.34076776591160    2.66012207767095
H           0.30787139023584    2.59596664620768    2.91082126211020
H          -0.96530670600787   -1.51872139081145    2.17437839992411
O          -0.25946647515613   -0.26446197267668   -2.50366828558091
H          -0.52332738121194   -0.30722573609718   -3.42346183062166
O          -1.64194131831946   -1.59288251958873    1.49057146008842
H          -1.84508345000585   -0.65124437554615    1.28967329103220
O           2.02785585117780   -1.31675692967976    0.62305961383773
H           2.32166655875280   -0.64386420120051   -0.03640267457090
H           1.54838875461979   -0.79269220480490    1.29964436244724
O           2.11755475823036    0.62867042795569   -1.16152662187957
H           1.65123694804366    1.23820633631611   -0.55809295112008
H           1.45963637766599    0.35699567790324   -1.81551022207477
O          -1.26457181474665    1.88963626571024   -1.45329651352002
H          -0.68897419768678    0.56286428414321   -2.13261073723652
H          -1.74862663309420    1.55752732126779   -0.67486182987559
H          -0.48251764623020    2.28593144936911   -1.03613819828293
N          -0.09527144323393   -2.18611967957608   -0.56517894147876
H          -0.10824491928388   -3.14670547215335   -0.88858797645201
H           0.85908214718218   -1.93162955888559   -0.09986852863559
H          -0.24659725810752   -1.52661010885881   -1.35295605131011
H          -0.82327277262180   -2.02480238377360    0.19428129071314
