    26
        -50.46052497  Gyration_radius:  2.47353241206 Dipole_moment: 8.476
 S          -2.25524956538003   -0.02892327110592    0.20011704211833
O          -2.94557908931501   -0.55379582956241   -0.94183228323307
O          -1.33353669027560    1.07626083342306   -0.11524947243811
O          -1.60617610044216   -0.99833539228749    1.05659835344602
O          -3.38637693001445    0.65309540856830    1.10347290077381
H          -4.13600415162074    0.63352916487357    0.51713345830629
H          -0.24277442926801   -1.18168230812813    1.79927720238259
O           2.49695673432500    0.76884880708112   -0.77748258888116
H           3.42978018186709    0.77800599407116   -0.99236030527554
O           0.64738173535458   -1.18086946710842    2.24942100931709
H           0.53979095129173   -1.70055730934020    3.04691025125316
O          -0.52067268100580   -1.36825364378716   -1.82623657308375
H          -0.29002849352495   -0.55610544822322   -2.31536965728112
H          -1.43858521296429   -1.24644780873472   -1.54375476938536
O           0.17342935500082    1.22149906121912   -2.41587526259111
H          -0.46513552024780    1.34167100397192   -1.69583166983586
H           1.04507993419622    1.19753952720684   -1.99941205230699
O           1.68191541864629   -1.63766181264723   -0.36231792561574
H           0.86545442729362   -1.68793217353383   -0.91206678805957
H           2.23378677260631   -0.20346136261465   -0.69270156051261
H           1.38315912637134   -1.68961950791480    0.55533208449995
N           0.84098858628425    1.29457207473278    1.23608676984310
H           1.59513587422966    1.25431183835361    0.50913378848086
H          -0.10316281892012    1.23639910980322    0.70501902225745
H           0.89868506950829    0.43628563543855    1.82164710770020
H           0.89173752600409    2.14162687624516    1.79034191812102
