    26
        -50.45450816  Gyration_radius:  2.46072841892 Dipole_moment: 8.301
 S           0.01326753601109   -1.99803152553569    1.02271182231064
O          -0.27130821261079   -2.37297582208600   -0.36866944398876
O          -0.16544413726120   -3.02803333257782    1.98589675590668
O          -1.05586066640342   -0.82918958085403    1.32188500680559
O           1.29978487523999   -1.29639687336973    1.10708726574264
H           1.62760327704571    0.24412161951310    1.51408752681221
H          -1.73826478957567   -0.93467923659376    0.62932533048554
O           1.88016104070516    1.19504966841386    1.63241647848118
H           2.22374728694145    1.26211267328659    2.52419406561809
O          -1.24264387633686    1.67948574085360   -1.27585954723970
H          -1.34598839952707    2.55047880846138   -1.66022552793935
O           2.78631036963815   -0.17323178171029   -0.77174468187886
H           2.44132147853387   -0.79631326215386   -0.09558587459963
H           2.90250831855062    0.65223754995601   -0.28813722197682
O          -2.86760625652397   -0.45196819556686   -0.59448689480266
H          -3.68770392894027   -0.16932676318154   -0.18600242179954
H          -2.43295677875461    0.34441268219139   -0.94556047202224
O          -0.68412566000094    1.87735043293491    1.23597222715803
H           0.28682133483399    1.85985790358146    1.36596675620687
H          -1.01506268801647    1.82370906358449   -0.30429954110576
H          -0.96429774441958    0.98528449042515    1.50288869329630
N           0.39820860008187   -0.46462602217252   -1.89461502318416
H           1.38725816759682   -0.25339492461787   -1.59246703491816
H           0.37003107889461   -0.75527932999615   -2.86577943247781
H           0.06734964064606   -1.30525181248177   -1.25615860159817
H          -0.21310986641107    0.35459782970111   -1.74284021928177
