    26
        -50.45450812  Gyration_radius:  2.46067515512 Dipole_moment: 8.301
 S          -1.56466054813014    1.17087924593324    1.10392369780196
O          -1.17908255928344    2.10924315677351    0.04171596981182
O          -2.36673587204539    1.71519689429494    2.14357895912529
O          -0.15201574210665    0.71735123850235    1.73418808641129
O          -2.07924044884558   -0.07379483336198    0.52034205229290
H          -1.47330103675539   -1.58257652218986    0.57185038345307
H           0.48068866841636    1.40442211004140    1.44427041113005
O          -1.09598042235241   -2.49248056390984    0.46334293918482
H          -1.56792847748116   -3.04397610087582    1.08862217246067
O           2.32724359259167   -0.19179913894508   -0.73416075969904
H           3.06134533019030   -0.67341915825366   -1.11650368212616
O          -1.88588536989542   -1.04384624221941   -1.93406995564291
H          -1.59784619462843   -1.91652705144017   -1.64378412200191
H          -2.22939836387379   -0.62443719983162   -1.11516730285670
O           1.96183484714189    2.06105999828405    0.82726584254010
H           2.60806797371616    2.12456538343664    1.53271663092020
H           2.25163021649110    1.34394649383418    0.23710943997641
O           1.29791623164822   -1.53957543100075    1.21118018232241
H           0.86238211093526   -0.79907529758286    1.66672366295658
H           0.54822033202699   -2.07954480243338    0.88515808245151
H           1.96310120131118   -0.77134217728252    0.00618551883249
N          -0.01151105079423    0.83231528604542   -1.80871017861679
H          -0.48977838659533    1.42591661632309   -1.00696366022288
H           0.11730061197867    1.42036684538776   -2.62480135610763
H           0.89607748375645    0.46336966459503   -1.48002263440421
H          -0.68244413742102    0.04376158586699   -2.01399035999888
