    26
        -50.44355152  Gyration_radius:  2.55417760927 Dipole_moment: 7.580
 S          -2.46082706443042    0.29750730560312    0.76724985308602
O          -3.08912619942544    1.25432237518204    1.60266375255690
O          -1.73658575474238   -0.76641087667995    1.43085976381132
O          -1.46017930628678    1.00267045222405   -0.20312150759712
O          -3.44950807373575   -0.30926403113097   -0.23637238361423
H          -2.92532609841234   -1.05574056150066   -0.66841756462392
H          -0.76683773667204    1.51947844219059    0.30078807979237
O           0.45906296800558    2.30451239530621    0.94104177535790
H           0.29763901128693    3.24767883899574    0.88319467587253
O           2.15937297595085   -1.34439845709383    0.19966646032344
H           2.42581874313525   -2.20032935524413    0.53844385268156
O          -1.76425929841109   -2.10496288417126   -0.89065268801828
H          -1.54698820607095   -2.02263959048380    0.05088705511425
H          -1.00821062857313   -1.70473577123783   -1.37118023934106
O           0.56168028047681   -1.20218435083781   -1.95527272190436
H           0.87522329946761   -1.85262936462706   -2.58587876381121
H           1.14195966926120   -1.27496172330581   -1.16331326204094
O           0.79130252527771   -0.21898333892412    2.14425862359729
H           0.78683953561052    0.73901668774708    2.03049133671462
H          -0.13464977191581   -0.49971912151328    2.01611741192400
H           1.66902816681536   -0.90634526088940    0.94641966445944
N           1.91261129129115    1.42012276894068   -1.04731833677150
H           2.49035267991609    1.97564011211494   -1.66497187882477
H           2.48356474447933    0.67704370911985   -0.65855654415343
H           1.09840487371031    2.05386287094182    0.19470829772962
H           1.18963737398645    0.97144870929572   -1.60173471232197
