    26
        -50.46390591  Gyration_radius:  2.62399813818 Dipole_moment: 3.822
 S           0.51392736990854    2.08572661956326   -0.08413613737856
O           1.23965415043598    0.83007010160128   -0.26744178609392
O           0.53948614901133    2.58146914429748    1.26862475375743
O          -0.82482244380921    1.99693947686001   -0.64203704458068
O           1.31443627763599    3.14098473456050   -0.96299304367802
H           1.08019178161460    3.95535634639640   -0.53127792026200
H          -1.81044467975008    0.88446412361974   -0.11443652744848
O          -2.35800458145680    0.13998549123754    0.25923838197885
H          -3.24620725846016    0.27512767972257   -0.07336929960301
O           0.28200103404193   -1.83546219563402    2.75109528304181
H          -0.16971235292725   -2.28629398212565    3.46511845488581
O           0.49153423601858   -2.50812892417766   -2.25567433706004
H           0.91956223092612   -1.65690028329714   -2.50940106531183
H          -0.16666089177027   -2.68184581926890   -2.92998374361329
O           1.46148325858482   -0.06544710335099   -2.74301733218655
H           1.35716585072106    0.36325645146248   -1.86474632008760
H           2.36929519883258    0.09737945967065   -3.00399499637611
O          -0.73777443481038    0.61492315312573    2.56241870669701
H          -1.48633461807512    0.51540727760800    1.96020283741005
H           0.01764149874011   -0.88676864914363    2.81417376222428
H          -0.21794702832273    1.36700308053057    2.21827707379258
N          -0.12041824331734   -1.41498175960520    0.13582301994501
H          -1.09661541745036   -1.07564494425276    0.12932606920968
H           0.48347110443870   -0.55972967847015    0.03702599588928
H           0.09102178906613   -1.84272166019354    1.05995993470078
H           0.07407002018307   -2.03416815073720   -0.67877470985180
