    26
        -50.46380756  Gyration_radius:  2.49142295257 Dipole_moment: 7.779
 S          -0.68054506578460    1.26842589079450    1.39246385618108
O          -1.18761899897672   -0.07473824777227    1.39504759792930
O          -1.19265598379891    2.08368758350205    0.29349126275517
O           0.78178364134530    1.33651900995491    1.43354851230745
O          -1.18246395970366    1.95881738922666    2.72177178820387
H          -0.86453716268781    2.85019618742074    2.62336373349359
H           1.58259006076931    0.89674563286970    0.11536155350821
O           2.00591687295461    0.62275540427541   -0.74016531769646
H           2.90529577164197    0.95315274634131   -0.71148865533842
O          -1.69041410416327   -1.04673203278495   -2.49363528948236
H          -2.64526050715956   -0.98801372128033   -2.43385112475760
O           1.63921266858730   -2.09180600362511    0.03968007149344
H           1.60572584873920   -1.90201811839242    0.99868486112460
H           1.88043842472651   -1.25430156490958   -0.37753403558661
O           1.14597302676081   -1.10317687180983    2.53608901479488
H           0.21553092593742   -1.33666004011058    2.60840821611612
H           1.13860425905489   -0.17421868490095    2.25073385041890
O          -1.01343477230193   -2.19682766370397   -0.30505490799279
H          -1.40749411116207   -1.59765931485254   -1.69311778151661
H          -0.03981522516318   -2.33433598690469   -0.25314800134528
H          -1.20259365067806   -1.51096030154098    0.35748097827026
N          -0.35573551495657    1.13702046911111   -1.97286020413457
H          -0.37957623602308    1.81352762569790   -2.72865067426685
H          -0.91150047895787    0.25433075998896   -2.23426555052673
H           0.62214147173710    0.88066849732163   -1.74158247244817
H          -0.76956720071864    1.55560137609451   -1.08077129146812
