    26
        -50.46712330  Gyration_radius:  2.45721406516 Dipole_moment: 4.054
 S          -0.82617613706490    0.51895697795913    1.63757861225940
O          -1.43393652184042   -0.19256995205238    0.51176362514697
O          -0.35015251100957    1.83521563917711    1.27528060533887
O           0.18255844582489   -0.28704839935402    2.29410982158379
O          -2.00705288983335    0.73021871873175    2.66757725343988
H          -1.61218526855498    1.32966504235741    3.29138671260428
H           1.49804832576224   -0.81076571841862    1.52913509113489
O           0.87760767620730    0.93283214140247   -2.44234462763433
H           1.45323363907791    1.31866429503394   -1.74568584457353
O           2.26261051526385   -1.09179276505086    0.96418988357876
H           2.85698379647051   -1.57379417932257    1.54057674944197
O          -1.90227246735180   -2.65676037110339   -0.77020924143110
H          -2.79780959402703   -2.96731737620240   -0.90809704131876
H          -1.96968737415666   -1.87320102299001   -0.20566390904158
O           1.97594355626226    1.54520763524043   -0.08170459978306
H           2.34453247912168    0.73940044583569    0.30148437755350
H           1.19066984378470    1.76216831952850    0.45343290829859
O          -1.39149703856625    1.83284069550467   -1.29559054221886
H          -1.61411933034577    1.07236958437715   -0.73443315288517
H          -1.04003488902710    2.47888663941660   -0.67333176407681
H           0.00131143179805    1.34471542870785   -2.28057166155273
N           0.47548545008115   -1.22461596173794   -1.08258887335864
H           0.68486984768322   -0.43178368685920   -1.79639064351532
H          -0.25411209411020   -0.84267158958133   -0.43903231249144
H           0.08586513794913   -2.06678158165370   -1.50303840257025
H           1.30931598060178   -1.42203894900325   -0.50783301392592
