    26
        -50.45251192  Gyration_radius:  2.42103234951 Dipole_moment: 4.247
 S          -1.56543494284505   -0.70647035034478   -0.27616646603725
O          -0.54831216126710   -0.52811344437388   -1.28855984987011
O          -2.57709618295084    0.29855314325271   -0.26127990797777
O          -0.87806376431607   -0.77592541652358    1.11692902463868
O          -2.15042119066693   -2.10491732219636   -0.39409681760743
H          -1.32657237221062   -2.68761324254129   -0.61976866375652
H          -0.52506672857550    0.12222473024327    1.43186157669399
O          -0.02802516578564    1.49893267299025    1.91267115842979
H          -0.54919691884072    1.77470370172109    2.66894841091471
O           1.47937419186281   -2.33095956860409    1.02569427675857
H           0.75999982076931   -2.12898470958232    1.63058830674795
O           0.03786515513231   -3.17072781085087   -1.01200145506048
H           0.64445736256466   -3.00265689103639   -0.24057826190619
H           0.22550802268313   -2.45502082748375   -1.63070454910869
O           1.27504649325769    1.33152077491731   -1.74139252056606
H           0.57739621672546    0.65089024865549   -1.64030395639735
H           1.75196861242735    1.11505849015090   -2.54434568850506
O           2.21711914962461    0.25510894680155    0.64646305578398
H           1.68824409960419    0.73982840365665    1.28964749562832
H           1.88882421283415   -1.46248617724827    0.82360774560896
H           2.02835730198752    0.67665473083527   -0.20863593602075
N          -0.92377994118955    2.66688663050770   -0.20581028996141
H          -1.31474129492550    3.59722523999319   -0.27584431352951
H          -0.33615965483434    2.06666042855094    1.11564460530316
H          -1.65454460758147    1.98881652984860   -0.41534055801411
H          -0.19674571347836    2.57081108871769   -0.90722641220225
