    26
        -50.46975139  Gyration_radius:  2.4459293312 Dipole_moment: 3.848
 S          -1.70870750092930   -0.81126245250259    0.22444323402837
O          -1.61769823663401    0.36771160948792   -0.64257740476767
O          -2.17709477408944   -0.49397665989593    1.55116253471659
O          -0.46924553806088   -1.56232521320290    0.20226544684163
O          -2.82949162386286   -1.72587176209184   -0.42691828040719
H          -3.38977072251534   -1.87055439398515    0.32734194813541
H           0.73406526645623   -1.48800509710173   -1.04078120329986
O          -0.26421677183240    0.93800239798436    2.74876513010637
H          -1.06996728693963    0.44043861709763    2.49879561820235
O           2.49106921182502    0.67988514266477   -0.30807306182343
H           3.30545968654024    0.95597814349801   -0.72913773558412
O          -0.71660871382370   -0.08173734017957   -3.10544528612529
H          -1.30875503919378   -0.70210269565595   -3.53336348968966
H          -1.12463991012435    0.13102276343268   -2.24101219356990
O           1.35254432521807   -1.15718286925626   -1.72033809789022
H           0.77417852445801   -0.75764125222056   -2.39843461840208
H           2.10571211566235   -0.04667278936241   -0.89040275985370
O           1.50733585571960   -0.85714560123306    1.93098384961831
H           0.83463900749955   -1.29725091077176    1.38196506662827
H           2.09983045893553   -0.41800440399315    1.30735975534414
H           0.45480795317862    0.26396911106287    2.72935465832373
N           0.21401232551159    1.92977930552143    0.41369233268245
H           1.14967239253596    1.57406492850468    0.11322508854975
H          -0.53094642572983    1.40160914478191   -0.11051531868885
H           0.05335703662614    1.65869274438231    1.45682417417772
H           0.13045840351519    2.92857955308217    0.26082061279613
