    26
        -50.46598218  Gyration_radius:  2.54726510423 Dipole_moment: 2.411
 S          -1.17953414272454   -0.70747279455450   -1.72655663352044
O           0.22823083310999   -0.32514264417711   -1.62492680966776
O          -1.99979747300503    0.07392592926623   -0.82016773599169
O          -1.37616355694821   -2.13488427508975   -1.63783661767055
O          -1.63610379491644   -0.28726128348680   -3.18915863972199
H          -1.31196721985727   -1.01715238425154   -3.70575960915192
H          -1.21570209626306   -2.71437952754018   -0.08519673218831
O          -0.01296828628110    0.62882417403384    2.45482653863131
H          -0.71672649859287    0.18624472798199    2.93162823721940
O          -0.93638272071295   -3.02687838501955    0.80524786296520
H          -0.77453822825986   -3.96730926058082    0.71095190586993
O           1.43966598919306    2.00749879115617   -1.06164031576896
H           2.09765496719596    1.72921565386074   -0.39042484595969
H           1.15048911090863    1.18008569889681   -1.49085920068610
O           2.76545231003022    0.94697337139973    1.05823198632565
H           2.43418123649507    0.04548151689838    0.93417074719986
H           2.37113618162010    1.25502832588176    1.87815622496629
O           0.95768358380741   -1.14641406206319    0.77332323003416
H           0.74836425080655   -0.86541410523076   -0.14422819465442
H           0.38452095487469   -0.06829940603437    1.86444148262949
H           0.38275850204384   -1.92624711849228    0.92199467121132
N          -0.77249472365618    2.05833626176713    0.31864049812837
H          -1.33566659217491    1.30550197450195   -0.18360172472935
H           0.13163940900111    2.19263860065182   -0.24746477906117
H          -1.30376623154477    2.91713179780061    0.40151670165084
H          -0.51996577419862    1.65996841241124    1.25469176195351
