    26
        -50.44982586  Gyration_radius:  2.40897667378 Dipole_moment: 11.007
 S           0.01375129896538   -0.39001725943081    1.82469938075830
O          -0.68814192055995   -1.59978642192099    2.15105255814145
O          -0.69270075890731    0.48083566671170    0.90071330806482
O           1.32727111214029   -0.86795630831935    0.94484600776633
O           0.61237048044796    0.34686420570023    2.91272534716597
H           0.61932540008255    1.84447462823826    2.34373203356813
H           0.99236919463254   -1.46192949499451    0.24789701454022
O           0.82889347061481    2.71529596341441    1.90714886882159
H           1.49691676213306    3.12581940330296    2.45992058521195
O          -0.24816180179244    0.46768321085728   -2.25060105615891
H          -0.47418871936937    0.81262076580869   -3.11531135679589
O          -1.94109168723717   -2.38068829989913   -0.09197737361720
H          -1.14794180842880   -2.62332686301584   -0.58154031339210
H          -1.62487483197778   -2.14570908878006    0.80457671444578
O           0.57265447982404   -1.98241909004275   -1.39578617015507
H           0.27074884859031   -1.13916620234331   -1.79362413795063
H           1.21682272241628   -2.36712110455153   -1.99192866149465
O          -2.42936334599092    0.07979132915401   -1.00675586500186
H          -2.47221783301557   -0.88478399789150   -0.81239422075470
H          -2.04912740417967    0.43251453239498   -0.17865863469490
H          -1.15182007717398    0.32737752164889   -1.77294339147142
N           1.41334760764230    1.46384239919896   -0.32679608747756
H           2.26536624950893    1.80288803894827   -0.76364404542381
H           0.66205696367904    1.28745179390719   -1.03190937879239
H           1.54982126793530    0.54427286276184    0.16574056668050
H           1.07791432001883    2.11117182914265    0.45081830801668
