    26
        -50.47080846  Gyration_radius:  2.41632989428 Dipole_moment: 4.533
 S           0.56718978625912   -1.66442150452492    0.91833277048339
O          -0.07211539828165   -0.70993806214690    1.80574145959080
O           1.80068346594315   -1.18237235274391    0.33639083470183
O          -0.35303356363312   -2.17557900884558   -0.09259858843052
O           0.94872039934141   -2.89778519572348    1.83424086643782
H           1.44987438813789   -3.43686809777989    1.23229184258939
H          -1.81629975272753   -1.42152747307351    0.14135358741298
O           0.21950320930033    1.23693568682748   -2.22141078167736
H           0.98652227959960    1.45364460230932   -1.63832770674135
O          -2.46556641714583   -0.78460718459590    0.51595912253131
H          -2.16493268033192   -0.69870894194903    1.42835436360093
O           1.99651967315226    1.43463494056027   -0.26234530088318
H           1.50701998875381    1.82985054360217    0.47052718671639
H           2.06056610211428    0.48465969509010   -0.04362266421737
O           0.02550559138906    1.87729804200869    1.70790156024948
H           0.03672651280228    2.21398882731306    2.60475091077318
H           0.04671888264848    0.88795471891595    1.78446875812301
O           0.85575756152003   -1.34200535444661   -2.30613163183599
H           1.72800340001477   -1.26380233370544   -1.90625653253355
H           0.30796410174853   -1.73889835969608   -1.60251019878466
H           0.35692195539946    0.28565315306816   -2.44189055103759
N          -1.62649795491370    1.53635903358874   -0.45436206100868
H          -2.04308466572061    0.60406731597752   -0.16215492970858
H          -0.90273817098984    1.38713039066426   -1.26849384691224
H          -2.35260056333640    2.18496369511686   -0.73732275885984
H          -1.09732813078395    1.89937322434478    0.35711428954893
