    26
        -50.46598218  Gyration_radius:  2.54730724351 Dipole_moment: 2.409
 S          -1.51191094379842   -0.15807507805341   -1.60041004176283
O          -0.47644773421709   -1.09645276840172   -1.16964078211247
O          -1.07652043227021    1.21520850694100   -1.42872729036052
O          -2.80446474565182   -0.45567983510561   -1.03051414727368
O          -1.65966885503706   -0.36873070226847   -3.16823171124618
H          -2.21921220747828   -1.13701984360733   -3.20426508357619
H          -2.92041941255621   -0.02194359065455    0.57281000852503
O          -2.87811435642748    0.08469921260257    1.55026641332123
H          -3.61560598428440   -0.41980294657555    1.89825128000113
O           0.99991712605483    1.44081511356954    1.82929287550722
H           0.37032359478229    2.08265990270478    2.16113509116821
O           2.20855408799143   -0.97047108782919   -1.18692959183536
H           2.42404893537199   -1.26048737729691   -0.27566036239854
H           1.28097335108453   -1.24031167422249   -1.32577635475213
O           2.36561596941048   -1.35046648850759    1.49759350435610
H           1.41315953490244   -1.46268574880433    1.63207453069811
H           2.59073895590932   -0.52384958047235    1.93198845486379
O          -0.35542595919733   -0.78126344468857    1.44649062337124
H           0.48892156564037    0.58985083449349    1.74396181771953
H          -1.27196249807256   -0.52280020086667    1.67871642105690
H          -0.39569061868076   -0.96889019567449    0.48324352742822
N           1.43129468746268    1.49097185924958   -0.81567429533549
H           1.39676505441399    1.61260674754210    0.22479639873836
H           1.91621558317677    2.25469175953214   -1.27199676866529
H           1.88039150235033    0.53792667672944   -1.03049968916324
H           0.41852375904331    1.42949992963735   -1.14229482822716
