    26
        -50.46537079  Gyration_radius:  2.50510373285 Dipole_moment: 5.426
 S           1.33224619715053    0.22380743861976    1.63526417445762
O           0.58102132560186   -0.61000646937849    2.56501603061484
O           0.52042475145649    1.24388203617108    1.01128777273127
O           2.06675542496824   -0.59171542677679    0.67458809524139
O           2.41860277340483    0.98464567119575    2.49757623199889
H           2.83336575508723    0.29377571324201    3.00517725550973
H           1.04064858703179   -1.51424120064395   -0.14075023014594
O           0.35863373797611   -2.05526722241547   -0.61945927524130
H           0.79024083787720   -2.87799831048200   -0.85617051068755
O          -2.16680146704799    1.18273348042937   -2.08750475489291
H          -2.10206285293168    2.02970951927395   -2.53045852994771
O           1.94870852974638    1.35296646909734   -1.24870710735034
H           2.46036854895604    0.62314727869615   -0.87922297714978
H           1.37618564526731    1.61387534999156   -0.50812503135233
O          -2.13624010194492    1.17950095142696    0.55523561581412
H          -2.23034307178121    1.23234018338287   -0.42910292335477
H          -1.22586122585149    1.46662490242717    0.75189423305098
O           0.09585672729533   -0.07357201601806   -2.60736511218367
H           0.12756633980893   -0.85365746927072   -2.03561050775431
H          -1.35158616808943    0.68011014834308   -2.34443805625121
H           0.79819153893215    0.52295862392595   -2.26987718314832
N          -1.53286130861087   -1.23963790812068    1.17321431008539
H          -1.07290953338362   -1.68507639350513    0.36214569688972
H          -2.25086661532305   -1.83490774104648    1.57106224532300
H          -0.75653537581854   -1.03945187283202    1.86758005546556
H          -1.92274900980318   -0.25454572573160    0.88675047227634
