    26
        -50.45977825  Gyration_radius:  2.60745566851 Dipole_moment: 3.377
 S           0.08065045716228   -0.74330018450815    0.57910803413773
O          -0.06807350779790   -0.07241894944924    1.86849854097861
O           1.37614619534199   -0.49370581446611   -0.01121069293185
O          -1.01525441868321   -0.37399159334755   -0.32401878365256
O          -0.03057827171011   -2.28170281743091    0.82167298830880
H          -1.00689682855108   -2.39191492955298    0.98071023199245
H          -1.06506420860504    1.18421207158665   -0.65827197575665
O          -1.03605539098313    2.16862723743212   -0.80266785424679
H          -1.92535404021091    2.42622719164711   -1.05017845066289
O           2.92601442994457    1.77528804799086    0.20006224720255
H           2.82148639780643    0.82178659268529    0.34352276518422
O          -1.23602173845069   -4.00963835519454   -1.16488930193402
H          -1.01494773343324   -4.93408509349677   -1.03810070030987
H          -0.51219873114173   -3.49661823497735   -0.78472265334787
O          -2.59904466609982   -2.30755002707543    0.59016807603951
H          -2.36094247432033   -1.46853967899391    0.15737410721558
H          -2.56830849786216   -2.97721208141627   -0.11077730640557
O           1.44825603482483    1.39267273820475   -1.99721989950497
H           0.58576688267059    1.81389700381937   -1.90402583386042
H           2.65256543135581    1.87909457029745   -0.73663501335810
H           1.37578605030101    0.55038830679130   -1.51544809233924
N           0.63256644312564    2.34216599453251    1.32837357917722
H           0.34613407167760    1.36532717725815    1.68038799362145
H          -0.01959628986272    2.55976442117673    0.55181114898709
H           0.58790393402395    3.03583713588217    2.06673337830336
H           1.62506045944117    2.23538925054919    0.92974347712054
