    26
        -50.46881486  Gyration_radius:  2.50713889859 Dipole_moment: 2.216
 S           1.13028928542311   -0.45960916416195    1.82748610097718
O           0.05232614226698    0.53199006548320    1.81788066672560
O           2.33738291090568    0.03586624222120    1.22742493032860
O           0.67655654975785   -1.73002577690720    1.26481697641010
O           1.44175398831085   -0.75038145151799    3.34927172666483
H           0.63974853430217   -1.15557815997639    3.66437469276053
H           0.70677460003620   -1.68656359926605   -0.35639263284165
O          -1.98882472678395    1.72286888122219   -1.70521443272532
H          -2.00637484926545    1.85116656693133   -2.65458473630127
O           0.67367147396160   -1.61314275483750   -1.34261689280472
H           0.93132717233091   -2.47293176036274   -1.67993866444418
O          -1.95017758342497   -1.24331143476924    1.33129712857316
H          -1.73882293449027   -0.35001474406953    1.63010948094359
H          -1.07990179946240   -1.67916652359335    1.30611513597049
O           2.17751895937442    0.66873434688372   -1.34278050667155
H           1.71021172544661   -0.14101322941118   -1.61473036396634
H           2.51021938034636    0.45838714553202   -0.44635968362065
O          -2.01041224180821   -0.85551359703783   -1.34717854903750
H          -2.10044593218428    0.73942002280865   -1.56191988748983
H          -1.09505703103377   -1.14600520802634   -1.49273610706395
H          -2.19063929971658   -1.04777452594927   -0.40288725924037
N           0.23095057982913    2.08812291334098   -0.29757098831161
H           1.03370234125459    1.62766503169111   -0.83113942471007
H           0.12214333381429    1.53167862366096    0.59429560190025
H           0.44834807924796    3.05372545431486   -0.07683429721648
H          -0.66226865844072    2.02140662579319   -0.86018802481088
