    26
        -50.46262716  Gyration_radius:  2.62306040708 Dipole_moment: 1.987
 S          -2.38329108044986   -0.28877392693913   -0.81800030929945
O          -1.89617183539570   -0.95777810354438   -1.99904965044834
O          -1.49970508028335    0.81331300402194   -0.42036511958488
O          -2.67304071555529   -1.18186642368806    0.28805536151123
O          -3.75718292321855    0.41543242834877   -1.20757296882850
H          -4.26478829929796   -0.30169498692777   -1.57485271314824
H          -1.43153023597631   -1.54131015210527    1.20534841109876
O           2.29962732606418    0.96516417635155    1.19840856611519
H           2.82071674864636    1.28526520222952    1.93520659904425
O          -0.64864062895367   -1.74448367676471    1.78679662683502
H          -0.89571747006971   -2.52421300498325    2.28628769449874
O           1.61099280049048   -1.56395137495531    0.28460812874545
H           2.06918421156514   -0.81768756748534    0.70580394559152
H           0.82667966090995   -1.74270854359706    0.84054708376046
O           2.35748344868702    1.95860393993511   -1.33512319891093
H           2.47328117594753    1.63614222755430   -0.41762043991741
H           1.90356176068890    2.80059913026823   -1.26779375352665
O          -0.20201411357368    0.97898422801700    1.91493479421294
H          -0.75348424389874    1.09127198714144    1.11567821850235
H          -0.36022705617905    0.05876833626120    2.17729143687187
H           1.34023446077587    1.04037064261363    1.48004415397504
N           0.62810291159806   -0.07585566942139   -1.66406629193257
H           1.33965152606177    0.66366314693201   -1.84133419006619
H           1.03749548709635   -0.78775219913878   -0.98677007127552
H          -0.21157082627562    0.35748353912348   -1.18891736900508
H           0.27035298048112   -0.53698634765070   -2.49754493453793
