    26
        -50.46961795  Gyration_radius:  2.44245493209 Dipole_moment: 6.005
 S          -1.92937478274928   -0.18566128621682   -0.03251882230484
O          -1.25386666628410    1.07978917122344   -0.27091757497030
O          -1.41726826335751   -0.88950999356641    1.13038050279081
O          -1.94490397333710   -1.02606337242595   -1.21563586545106
O          -3.42804893997693    0.18070873500046    0.29520126947580
H          -3.77491775936050   -0.67227733253285    0.53132669030238
H          -0.59466518580849   -1.45218877092626   -1.94219558691859
O           0.55830067076633    2.07718252116200    1.55809409605665
H          -0.18625621827224    1.89339736976837    0.96329437399158
O           0.29470963045625   -1.63041634147817   -2.34928926965020
H           0.14928487500590   -2.28765315001341   -3.03112697930650
O           1.09430102728356   -1.50379312759252    0.38651866389497
H           0.18641336617384   -1.34951140209490    0.70694109510342
H           1.00260804326331   -1.80148828506165   -0.52688949385668
O           2.41456084714737    0.82719086661656    0.18912419036710
H           2.14513138500789   -0.08998572707493    0.41007466363745
H           1.86777673215814    1.40061652334296    0.79113531797801
O          -0.00243751611611    0.02413073652113    3.24372566089354
H          -0.62967978806266   -0.32210696268542    2.58327290977113
H           0.72263333578911   -0.60428221172706    3.26570488958714
H           0.40275831335401    1.50597676725976    2.33574819212347
N           0.86901261999855    0.98020263443716   -1.84258106250465
H           1.64542784706307    0.97426743427849   -1.05074740654148
H           0.82727895616379    0.04265174004933   -2.27594908955098
H          -0.03539858411057    1.11775604676528   -1.32400419802775
H           1.01662003780900    1.71106742696839   -2.52868717688995
