    26
        -50.46961798  Gyration_radius:  2.44244938417 Dipole_moment: 6.003
 S           1.21724927245342    1.17336291959562    0.94842278891678
O           0.77004438502985    0.13674162653380    1.86243744199096
O           0.15363624452857    1.66706363364338    0.08844062093080
O           2.38542034396970    0.76510550499544    0.19012223482573
O           1.65067223860544    2.39739423925597    1.84371548039268
H           2.26644261247801    1.97944425164237    2.43527548070201
H           2.28347455675689   -0.33808558418593   -0.95221283355194
O           2.11310785399094   -1.00240389981620   -1.67205699736734
H           2.97361113491381   -1.27033443753975   -1.99722278749296
O          -2.46173962923099    0.87386171405794    0.48173733908546
H          -1.61425330316233    1.33799095890581    0.39081259390560
O           0.14650588772090   -1.88312627526887    0.19820517478873
H           0.38832699487974   -1.20989772438970    0.86082093401403
H           0.86844608834907   -1.89136758460824   -0.44219715826202
O          -1.98193577484805   -1.06361396439952   -1.22072400781778
H          -1.35978790801369   -1.57743934271294   -0.66256223452525
H          -2.35917066448421   -0.37649266617980   -0.60772528161375
O          -1.71858736303759   -0.49415411146503    2.70605918052751
H          -2.41765983203386    0.44413918519857    1.35840994116968
H          -1.73393399938720   -1.43992925444544    2.54347131657725
H          -0.79836439662435   -0.21567692333882    2.54734882529733
N          -0.14630647194493    0.41136302370762   -2.21813658992539
H           0.70502653666744   -0.16750121523030   -2.31125507507832
H           0.00005235390207    1.03878383183510   -1.38706325220657
H          -0.33664030503794    0.94711158751344   -3.05685754807536
H          -0.99363685648500   -0.24233950330225   -1.92726558708232
