    26
        -50.46961797  Gyration_radius:  2.44241313514 Dipole_moment: 6.007
 S          -1.80135821279583   -0.31108599952554    0.64514205652053
O          -0.99228934896357    0.81798951212367    1.07557363452126
O          -1.07690934827410   -1.56974354621332    0.67504137993666
O          -2.42772931030072   -0.07284994391812   -0.64216281580738
O          -2.96009006970878   -0.44066499242590    1.70729571846928
H          -3.38010243253256   -1.24352990091774    1.41980094723869
H          -1.56035517609270    0.27985834316855   -1.92918740351702
O           1.52964279603930    0.42586856904011    2.12954533968398
H           0.60028872053326    0.63634245511896    1.94542456190152
O          -0.94048513187911    0.53417863767727   -2.66367077783880
H          -1.46396184214515    0.53559476882398   -3.46617227467632
O           0.79475267869901   -1.21498853511544   -1.22487579719673
H           0.31732008043864   -0.79243026221284   -1.94932102817585
H           0.12146205243648   -1.42709816679370   -0.55226587503508
O           2.44028241977685    0.70318090158730   -0.31520855372699
H           2.07041233323266   -0.12586339015085   -0.68749864228291
H           2.28945736889397    0.62632787692852    0.66532476481606
O           1.16860191036783   -2.26201965155151    2.00934589201642
H           1.69340791482480   -2.64243561892726    1.30154198588396
H           1.54038818660290   -0.53893541172389    2.28546070750071
H           0.28550579565007   -2.10786042525320    1.62735018142085
N           0.34396249997942    2.07590344634862   -0.82641236586892
H           1.33067053789760    1.59717751895430   -0.66225061733137
H          -0.25852541404333    1.71287864104494   -0.04465829961868
H           0.39430093667289    3.08785071733436   -0.81517648239400
H          -0.05864994535854    1.71635447655300   -1.70798625642238
