    26
        -50.45450931  Gyration_radius:  2.45162002194 Dipole_moment: 5.292
 S          -0.54892561392109    1.99744652741027    0.26275303729496
O          -0.09034003667417    0.86435256940261    1.04581989344443
O          -1.65819614480997    2.70322254304123    0.79400946519246
O          -0.91679426527766    1.52129173889468   -1.15262932070121
O           0.65927919433925    2.93505303847171    0.04878595536045
H           1.49486664697440    2.44904147467821    0.32554202949513
H          -0.34394106983481    0.74578768322865   -1.51137225048855
O          -1.32207338543151   -2.15918920108401   -0.64949084643468
H          -1.90328197962056   -2.75335859134935   -1.12590639934612
O           2.58907078596020   -0.88430963796826   -0.43169635366011
H           3.32936313426624   -1.48407873898076   -0.53015130463235
O           2.60333860164638    1.48156255647594    0.91043624985523
H           2.72293557031458    0.71449717084290    0.31503536499327
H           2.07737853351290    1.15064427530126    1.64618264989217
O           0.36649854271702   -0.49220165776223   -1.97244279831625
H           1.23752189109046   -0.57079845864019   -1.54212025151396
H          -0.20170485012220   -1.18626075502835   -1.57759438729806
O           0.71557230914601   -1.70818377123165    1.17967891874524
H           0.37633163654879   -0.80608336173091    1.31525846307633
H           0.03772287814132   -2.14064990609268    0.63890833921617
H           1.96333673649704   -1.29340630712851    0.23253204212222
N          -2.74301270392463   -0.16277408079559    0.40326598260753
H          -2.02479952333962    0.26556676081677    0.97882424939608
H          -1.90172468555149   -1.44749232812571   -0.25040439493184
H          -3.57688233295148   -0.25362876829107    0.97173611679640
H          -2.94153986967719    0.51394923564432   -0.32496047017220
