    26
        -50.46262707  Gyration_radius:  2.62307882519 Dipole_moment: 1.989
 S          -1.64832193951308    1.70391108537134    0.90095840898271
O          -1.27267215447568    0.31135795321070    1.17144377290429
O          -2.21258455265752    1.85297755499700   -0.41776434750668
O          -0.56569223519890    2.62655931279779    1.18646458288725
O          -2.80547235154660    2.02074382974520    1.94788670166932
H          -3.11076622344525    2.87931627711204    1.67138723157735
H           0.86640264059839    2.15460565827203    0.69821647802432
O           1.76453530947609    1.83881540806095    0.40518336440831
H           2.32060292601216    2.61934331368842    0.39684979689400
O           1.71829487625378   -2.15245442126939   -0.26572089164858
H           2.46633502711712   -2.69629521468664   -0.01761532516376
O          -0.69645318898592   -3.07225371297850   -1.12102675929028
H           0.22674502414820   -2.85479116371614   -0.87676749722027
H          -1.10581827193924   -3.42884791543137   -0.33058581778963
O           1.44311932113416    0.18860575036236   -1.73201608833185
H           1.76429402095849   -0.65756971744955   -1.37837991204042
H           1.62005818579522    0.85228267121616   -1.03599423753887
O           1.20965662455460   -0.53407205824945    1.70757401273839
H           1.50682265524594   -1.58525840148559    0.53363624501888
H           1.65060848291549    0.28651574181599    1.43774317541324
H           0.25937460696881   -0.30586893835772    1.68547193314759
N          -1.09689121879308   -0.42066664223041   -1.33826603978119
H          -1.20587428953708   -0.19590128026928   -0.31059504104973
H          -1.80947899351913    0.12258070932211   -1.82034805893364
H          -0.12274021619084   -0.10230905598594   -1.62599968385986
H          -1.16408405539082   -1.45132674375753   -1.47173601351788
