    26
        -50.46961388  Gyration_radius:  2.48974893141 Dipole_moment: 4.678
 S           0.09857966234910    1.16196912023363    0.95114641054266
O          -0.84406099853551    1.35982824742436   -0.14291930978702
O           1.47002909516277    1.46516365642126    0.55865613652217
O          -0.01728576687886   -0.17831579071888    1.50111692779483
O          -0.31940453542780    2.17761844265815    2.06139580543937
H           0.43880266552875    2.14024495600636    2.67533549511432
H           0.34732323589196   -1.47073272135177    0.73336231810257
O           0.55144005847071   -2.29918748258872    0.20548625396524
H           0.63510005439409   -2.99852755164990    0.85546026537394
O          -0.12240102701445    0.33641901795884   -2.50704253580490
H          -0.40322952628908    0.91924759882818   -1.77213096588569
O           2.13283770291789    1.95899044404306    3.03339159717572
H           2.14657756659651    1.69226654256543    2.09017455966995
H           2.64858532734363    2.76642288413074    3.09330055531921
O          -2.94701941944867   -0.18910730375983   -0.10164486156895
H          -3.65027969951198    0.37409541975106   -0.42990690247143
H          -2.17053794166065    0.40870222695063    0.03222678046390
O           2.09407478480115   -0.39189819537882   -1.26885189830043
H           2.01688270295352    0.33007372870834   -0.61459928031216
H           1.83418914764568   -1.19565821776374   -0.80122190227709
H           0.81076531759894    0.10689573319430   -2.27708416617836
N          -1.36726071625651   -1.73004266705253   -1.59039708685452
H          -0.66679265785744   -2.12813873746219   -0.92476251817133
H          -0.86233310969727   -0.91208640039291   -2.10992388074853
H          -1.72873974532645   -2.43230030745871   -2.22492440283541
H          -2.12584216774769   -1.27194263332179   -1.02564340428989
