    26
        -50.46961394  Gyration_radius:  2.4898110138 Dipole_moment: 4.678
 S           0.05882274326188   -1.34908421625537    0.66405022525560
O           0.11949676199561   -2.05801547363665   -0.60895522027938
O          -1.20536119019176   -0.64596943322876    0.84323095198843
O           1.18450555258948   -0.44444342343291    0.82749682881459
O           0.12126760265173   -2.40980418615118    1.80851109277318
H           0.87465270331120   -2.96777448449379    1.53588217755930
H           1.50934501868037    0.72661123365059   -0.12946597784399
O           1.68048196061409    1.50473152595528   -0.73928079453763
H           2.58532732958704    1.76804798919087   -0.56478971076686
O          -2.05717062378837    0.77976759303189   -1.25409576204351
H          -1.96589928700397    0.15091624840546   -0.50924410414294
O          -1.08170419891466    1.52833024802675    2.28551777992562
H          -1.91003652248038    1.52765640079523    2.76864739334828
H          -1.03411216479608    0.64573522676996    1.84163272866760
O           1.87974086107094   -3.73431942848885    0.33924953091031
H           1.65354859704814   -4.63645087350150    0.10154284609786
H           1.35498042381437   -3.15369723252075   -0.25109121380864
O           0.10003751376168   -0.13434713986988   -2.47357424358955
H           0.80272666406792    0.44000466414336   -2.14407865683313
H           0.12982824063497   -0.93487679879399   -1.91363127056610
H          -1.40455524933277    0.44870490593744   -1.91806176293340
N          -0.67653591953390    2.63148800221201   -0.10303864379957
H           0.30059302388601    2.36807758664008   -0.36395934758059
H          -1.33209523328303    1.95512766775268   -0.65689501944629
H          -0.81808494680076    2.38616497848437    0.90891261550857
H          -0.86979968074403    3.60741840932954   -0.29451247267788
