    26
        -50.45675083  Gyration_radius:  2.62276897148 Dipole_moment: 5.149
 S          -2.02325001117350   -0.86742350451656    0.25521038773686
O          -2.45841322167887   -2.22633830938950    0.16688242618463
O          -3.05778554135594    0.13251596775201    0.38428413439718
O          -1.33771822511945   -0.52793196532557   -1.19458038216715
O          -0.90669378059480   -0.64723570732950    1.17500370893986
H          -2.55050739717165    1.64434188237555    0.08157816544003
H          -2.07388142772703   -0.63339301119509   -1.78920392838935
O           2.43325333197709    0.47932563462844   -1.06926196380117
H           2.99335451812562    0.59481797793335   -1.83738808534505
O          -2.14826671758948    2.54088570506055   -0.04657663583014
H          -2.65482803412324    3.13227001638713    0.51234892868687
O           2.72700785308802    1.58804510618331    1.47916098196817
H           2.88350457512207    1.17520173756012    0.61280292003695
H           2.94905805892577    0.92901630634860    2.13878062587881
O           0.14826231020152   -3.05385643072451    0.70902171835143
H          -0.69651873825155   -3.43082665271649    0.43784210479654
H          -0.11016573766789   -2.20371889387191    1.10417224700960
O           1.15921147520057   -1.77878189872568   -1.41858911282382
H           0.28731604103968   -1.39008910893408   -1.57091154673825
H           2.04287273164398   -0.43288374222045   -1.15587687416685
H           1.01714153338836   -2.37901871728742   -0.65396647027800
N           0.27749166584600    1.49764211920148    0.33217951740819
H           0.97241787986290    1.85858287497649    1.00596802887914
H           0.80503869816112    1.25784496584161   -0.51818735101475
H          -0.15317852479685    0.60444193284513    0.71806230667425
H          -0.52472333536718    2.13656572520721    0.14124415803219
