    26
        -50.45792495  Gyration_radius:  2.59226232034 Dipole_moment: 3.551
 S          -0.15208879933013   -1.61738500791108   -1.56036842158240
O          -0.26644649931202   -0.30660837507807   -2.19411871732564
O          -0.26611973952132   -1.51135900535689   -0.11792106368062
O           0.98996793874107   -2.37321456196295   -2.01864247033175
O          -1.43934259245860   -2.44026549457662   -2.01890601601835
H          -1.20347155321875   -2.72282844193935   -2.89702758474988
H           2.10853543961303   -1.52834696694946   -1.16850537722166
O           2.19323050663446    1.39257118936970    0.32576136666512
H           2.90241487125955    1.96253866424604    0.02601747564823
O          -1.72499033331082   -0.07772680062440    1.64848675586354
H          -1.61744890756424   -0.83502349348510    1.04930251416457
O          -2.80425107881899    2.44050610576842    0.78798382568145
H          -2.69656256557985    1.59390432752150    1.24408091558448
H          -3.67930291526358    2.76060153464240    1.00886057495128
O           2.68139485587071   -1.05623605212709   -0.52309672446986
H           2.38564735159359    0.49688232558950   -0.05211000018008
H           2.76732572677511   -1.65212997291074    0.22525972761671
O           0.91146255903214   -0.49761490332222    2.15416629329631
H           0.66687325026567   -1.01023808048223    1.36512170080642
H           1.47191487026440    0.21953542874746    1.83972158244708
H          -0.96233566593123   -0.15924766194491    2.25043599485856
N          -0.45236060643458    1.41137732701118   -0.27832144151483
H          -0.43213240502660    0.76938229059999   -1.13414462944169
H          -0.90350756172584    0.87175145340879    0.49589758408789
H           0.53313813435474    1.62032030065360   -0.02674246054799
H          -1.01154430115236    2.24885386135832   -0.43119141453169
