    26
        -50.46986031  Gyration_radius:  2.51123159689 Dipole_moment: 4.767
 S           0.38935918042731   -1.43912874725685    0.41742629670083
O           0.97950958494627   -1.26391442559554   -0.92003405882579
O          -1.04001572159048   -1.63320228567781    0.36761409988909
O           0.77343829535193   -0.32054472583124    1.27621142143127
O           1.00629419990917   -2.73993395434871    1.02630461865081
H           1.96364285335080   -2.67360852138382    0.84974320267404
H           1.35847553110423    0.87898467620454    0.33628314722515
O          -2.25363398615844    2.32230178990454    1.10880515285162
H          -1.96497580560209    3.01260489535693    1.70796151787767
O           1.57693470785614    1.47142400694665   -0.42517266547359
H           1.95994320161866    0.87305207570396   -1.07328225330198
O          -1.29516953757814   -0.50295286087941   -2.01860276754839
H          -0.37137807824631   -0.80640801594050   -1.91001311670967
H          -1.72997142170407   -0.97200747554438   -1.28869771149480
O           3.30806448335728   -2.22797233315030   -0.21624453585824
H           2.56139566515532   -1.77759873630767   -0.66337149278893
H           3.59412699857164   -2.93263846422207   -0.80138472913428
O          -1.61427344362987    0.10803356067704    2.33899663579409
H          -0.64796561498971    0.08758080855404    2.20141968711916
H          -2.10427619818800    1.46548833563905    1.60033869349422
H          -1.90503451170373   -0.64709626654279    1.80842227124050
N          -0.91712702007012    1.96472462707726   -1.15678053321870
H          -1.06724832541115    2.70049726314513   -1.83851476623775
H          -1.18441608063651    1.01530980039846   -1.56008888084665
H           0.10799855769401    1.89122300843005   -0.88614437724697
H          -1.48369749410179    2.14578195491612   -0.28119487629103
