    26
        -50.46854431  Gyration_radius:  2.52484165274 Dipole_moment: 1.495
 S          -1.84419971611660   -0.33423956272173   -0.09132158341260
O          -1.09898047102664    0.63711061572798   -0.88427760436572
O          -1.19268645460596   -0.59147679953607    1.17928402079881
O          -2.15191247909653   -1.52772907167292   -0.84957517706714
O          -3.23028695229229    0.34127960779036    0.26800279286057
H          -3.68287876963398    0.33324548907116   -0.56856284303637
H          -0.74609182935867   -2.17682454667691   -1.31512233994655
O           1.75975570510111    2.66907931062295    1.54025143046805
H           1.58422005388279    3.57259130047391    1.27337037073831
O           0.14553847894329   -2.53402477535128   -1.55332352500386
H          -0.00966616732803   -3.40396175169587   -1.92547262835275
O           1.20548699930373   -1.77569691566048    0.86392730413054
H           0.33208273039379   -1.51352384290705    1.20707453130488
H           1.01166328348910   -2.25216321446362    0.03832665432393
O           0.98267215648972   -0.13555766163134   -2.73818969297870
H           0.85624089158900   -1.06956928412443   -2.51174635719451
H           0.14301390017038    0.28206172626821   -2.50916675512435
O          -0.57700345507715    1.67437755948896    2.39533883602891
H          -0.84119564704183    0.85897829174195    1.91629533492911
H          -0.71969723248654    1.48473676264324    3.32425594976926
H           0.92779455452991    2.34233849982379    1.95188243997348
N           1.46252737428945    0.64007414986013   -0.19723429072152
H           1.57320916497113   -0.28346095231856    0.30465803490502
H           0.42979144526043    0.75738110755372   -0.35858271812734
H           1.81035793962893    1.43509577958551    0.37845375931527
H           1.87024447607044    0.56987819808806   -1.13854592422058
