    26
        -50.45692191  Gyration_radius:  2.54018562726 Dipole_moment: 6.435
 S          -1.95873805236835   -0.20359837679796    0.95856712560943
O          -2.18327909564777   -0.81063093615263   -0.35520470910730
O          -1.06631333625417    0.92312237903942    0.86324084355820
O          -1.59069364471392   -1.19030758909488    1.95803572109150
O          -3.36896238062629    0.37030110515703    1.42531683317074
H          -3.81498059627922   -0.41363574956787    1.72985213360360
H          -0.18518976063127   -1.66080528328428    1.44726227545050
O           0.06412130299958    2.72870213671291   -1.13497165140494
H          -0.75864109911943    2.97199108973461   -0.70245042510111
O           0.69698834783049   -2.00322017815766    1.13477996236792
H           0.89742604157505   -2.75033864182857    1.70234804545399
O           1.32291052325936   -1.71893395820072   -1.47257997480664
H           1.12149468991568   -2.53627753316660   -1.93063471470319
H           1.07009357359765   -1.86254799791237   -0.53540004345706
O           2.72799558141172   -0.14785609921516    0.71157309668468
H           2.83222186755517   -0.37037074637275   -0.21681642340138
H           2.03948818950131   -0.74343397626744    1.04940269071657
O           1.33743181286607    2.18269521558225    1.07442749484623
H           0.69757364934833    2.61444244449487   -0.37152408938389
H           0.49855985718735    1.75259470528214    1.30578132350668
H           1.98436545812348    1.45720885757559    1.00068846313812
N          -0.46754553573552    0.28667324186819   -1.94952321938753
H           0.34015404360484   -0.36188807369785   -1.86754742150055
H          -1.23061462103275   -0.11389606262206   -1.31305210760583
H          -0.21151095018532    1.27073499961252   -1.60240969981033
H          -0.79435585618142    0.32927504728981   -2.90916153953652
