    26
        -50.46116896  Gyration_radius:  2.61817338917 Dipole_moment: 2.815
 S          -1.98838024718015    0.61515426878505   -1.14187725999867
O          -2.41254639199919   -0.75196023237690   -1.28958338289996
O          -1.04623927849745    1.06998219715991   -2.15656720115890
O          -1.46747147442439    0.87889082121746    0.20354263868570
O          -3.26926889120642    1.53500783176281   -1.31624621994148
H          -2.89706947349645    2.34001584495468   -1.66285002390028
H          -1.44488762129054   -0.49646527978995    1.06999726490943
O           1.07029255082019    1.25666545250900    1.03189838751681
H           0.11854858962116    1.37436936648964    0.85353886565339
O          -1.35367179009778   -1.34457776996292    1.57408156099692
H          -2.25013888808113   -1.63791392713106    1.74344221364985
O          -0.34717695203939   -2.34326019924192   -0.77580027063711
H          -0.52914928516317   -2.28893238326638    0.17744040972100
H          -1.15381692986177   -1.94951685824332   -1.16789457272013
O           3.38181273127445    1.32563476238988   -0.65690600718319
H           4.08119068928644    1.97802156126146   -0.61136241456122
H           2.74953261834560    1.55099254259099    0.03960406373497
O           0.90117181667755   -0.65619445250456    2.93531228007544
H           1.47281050458976   -1.42508516504479    2.91381410842727
H           1.11025717265300    0.67820272834071    1.82120653415568
H           0.03130827328662   -0.94652786605757    2.60357826692320
N           1.07226169713287   -0.16795584686482   -1.25272639037336
H           1.96977359401163   -0.13402950212908   -1.73090587720515
H           0.69269814381258   -1.14546878750652   -1.11443312310444
H           1.18134190113910    0.31033614973188   -0.32200400305292
H           0.32681694066695    0.37461477278538   -1.76829984772068
