    26
        -50.46116888  Gyration_radius:  2.61840935155 Dipole_moment: 2.821
 S           0.21173486422279    0.85585488002713    2.20556715281552
O           1.58598572266120    1.09586108726568    1.78357418385014
O          -0.01395088626651   -0.43357276444523    2.80315556240859
O          -0.72049755802103    1.11310581704362    1.10286482607850
O          -0.08568875481804    1.95410426083695    3.31132106539130
H           0.48403517611114    2.66966136996643    3.04661172099591
H          -1.64963566612502   -0.19650873532257    0.84698999511777
O          -2.16160990376437   -1.01773846631842    0.63471428729540
H          -2.74222604418759   -1.15662824879318    1.38437910673025
O          -0.28850317433580    1.13007238844446   -1.55881316209006
H          -0.53610970282598    1.38743096224504   -0.65113230563618
O           2.23888156580429    0.72526745497453   -2.84403632268586
H           1.36994435513374    1.09101938237041   -2.62761754724394
H           2.58591244567247    1.25426639548717   -3.56272705189605
O           0.24736396126238   -2.29906352516214    0.92856839773937
H          -0.67323882856952   -2.16049125688228    0.64917267049349
H           0.28795828304836   -1.80666944550416    1.77431809275267
O          -2.29055094509036   -0.61826734695142   -2.05532701711288
H          -2.11379047143898   -1.46827963612770   -2.46110675954527
H          -2.41638102920585   -0.78533805268976   -1.10288946064139
H          -1.04353705472398    0.59929493225589   -1.88641471962547
N           1.56683150879863   -0.40640309993436   -0.35644847313144
H           2.39199100239502   -0.54321815082292   -0.93586607776537
H           0.84677857901990    0.10209264495366   -0.93089439949405
H           1.15548769115666   -1.30191670830734    0.02785621131677
H           1.76281487412623    0.21606387132385    0.47418000390413
