    26
        -50.46116925  Gyration_radius:  2.61825824633 Dipole_moment: 2.813
 S          -2.21066487488506   -0.33536742674908   -0.79882658468258
O          -2.71646675706401   -0.63648355469463    0.51432294052182
O          -1.59455243605799   -1.46453463440241   -1.48414171305967
O          -1.30272887638054    0.81627556983885   -0.77882141964038
O          -3.44554716814929    0.08109577060253   -1.70384454586301
H          -3.16232606693237   -0.18913540292813   -2.57186547854457
H          -1.08109335554069    1.32199207293112    0.75031113955213
O           1.38000107460049    0.90718814211700   -1.03134325042009
H           0.42408280361414    1.05125915622595   -1.16155587339875
O          -0.87955589184151    1.58273623243975    1.68468759722762
H          -1.69662324522717    1.94582441407469    2.02956571201728
O           3.08753971928611   -1.34045020602365   -1.51462193713898
H           2.70022139713089   -0.45581533363636   -1.57091280190377
H           3.79912673307101   -1.36732781551010   -2.15461572693108
O          -0.66036598058425   -1.11663245517095    2.12812054487725
H          -1.52989002624207   -1.15599342661065    1.67895122943883
H          -0.54816453438789   -0.16394730615192    2.28495386577871
O           1.70472731824506    2.32132872944847    1.25050730618555
H           0.76424612924373    2.21135620106268    1.48365731239587
H           2.21125579731428    1.96630360301380    1.98251351844010
H           1.62871069627946    1.50640900356368   -0.29772530841479
N           0.64311689134280   -1.52162874896893   -0.13257300921527
H           0.28111634530742   -1.48745729465570    0.86067905748745
H           1.04371721593407   -0.58675470319361   -0.40156190334873
H           1.35862553583398   -2.22760102484655   -0.29060552777064
H          -0.19850845391168   -1.66263956175915   -0.75525514356774
