    26
        -50.46154318  Gyration_radius:  2.50737101348 Dipole_moment: 8.172
 S          -0.77084990704400    2.10535818535452    0.68102219262841
O          -1.72705214270885    1.06685113794740    0.29068065171456
O          -0.21627295432587    2.82322062723899   -0.42776699107311
O           0.22934749890789    1.53820512836545    1.58468288475342
O          -1.58204473874780    3.13646100008412    1.56809484028837
H          -1.67660300920537    2.63925355050822    2.37324734995627
H           1.44146783105381    0.86028238333064    0.93433950088824
O           2.20051424015223    0.32607984609177    0.54416338262209
H           2.98935672269067    0.63284501428913    0.99355969659972
O          -0.00599682569757   -2.52538134233101   -1.69540097401308
H           0.61664378885505   -2.54979353858243   -2.42386187048705
O           1.20566139643830    1.16471404088455   -1.97401092490637
H           1.75691602533998    0.81185221818492   -1.26321131038176
H           0.73948352150486    1.92139299372054   -1.56959131788869
O          -1.58996782087222   -1.12243714609459    1.62335759735408
H          -2.30125655002716   -1.62804978431057    1.22301610679749
H          -1.63243702608466   -0.22772323562692    1.18489532585330
O          -1.09879827846592   -0.21193797211572   -2.00619551175249
H          -0.28498202197382    0.29628663362100   -2.21254373438321
H          -0.54151841958825   -1.68449325513511   -1.83902639038255
H          -1.47379483019950    0.24718904989601   -1.23264244090278
N           0.76355730620715   -1.93867640748121    0.74084719148511
H           1.16944979887126   -2.69645749011278    1.27842034433212
H           0.53130426593579   -2.24870758361018   -0.25377630967240
H          -0.15312114922131   -1.61812268481112    1.17842843961714
H           1.41099328820868   -1.11821133927694    0.69927230094684
