    26
        -50.46116927  Gyration_radius:  2.61852539708 Dipole_moment: 2.815
 S          -2.34846245860478   -0.14593936512667   -0.32172130390112
O          -2.27237801556365   -1.50203547417619   -0.79709535303027
O          -2.08785424024790    0.86707724496510   -1.33665623453807
O          -1.49509358453544    0.06565317162620    0.85217373142234
O          -3.84002314778534    0.11155259815862    0.15431829165784
H          -3.94457026705830    1.04553012258307    0.00140783287284
H          -0.65383928218475   -1.28615598321728    1.18029553563256
O           0.84538328017793    1.38620699068102    1.07519345859511
H          -0.07677605188763    1.09308647625178    1.19784551395573
O          -0.08017838477298   -2.07883523130899    1.33618541198221
H          -0.67530666129840   -2.77050921619906    1.62903107079843
O           0.25870147557084   -2.05518871561018   -1.38747393036784
H          -0.71921234116999   -2.00177892364319   -1.40503416119289
H           0.44081589327390   -2.26971800034899   -0.45717506722367
O           2.16819312204424    2.80193016432814   -1.03365889896479
H           2.54639924118486    3.67848494124358   -0.95946916527731
H           1.80610323499647    2.58387882317246   -0.16363522665020
O           2.10394789582843   -0.71548714009681    2.21980872408845
H           1.38347182949563    0.75176158897292    1.59199488929625
H           1.34248488161354   -1.29938702011382    2.04559932992342
H           2.86302011403294   -1.12327672817437    1.80036971471181
N           0.50710318378733    0.57268880961960   -1.46930407409081
H           0.77500055770696    0.86404814368461   -0.49450521769077
H           0.58749330432317   -0.47740543161674   -1.56773678557721
H          -0.51819247001156    0.80701077203307   -1.56711674536188
H           1.08376889112562    1.09680738232177   -2.12364134107215
