    26
        -50.46828967  Gyration_radius:  2.47607919711 Dipole_moment: 1.525
 S           2.05865869542152   -0.30710239176784    0.39237454205562
O           2.68177442580552    0.92556328682053   -0.03365013768831
O           1.15371213206162   -0.85850279496247   -0.60638410693208
O           1.40443561029098   -0.21468902219530    1.69033568684125
O           3.24571101313249   -1.35059851388549    0.54642090902028
H           3.99406006824465   -0.77157248791575    0.44964407847412
H          -0.01762755715373   -1.02090868535324    1.92331741296997
O          -0.90333457698865   -1.39039631877978    2.13928853737826
H          -0.97158874561646   -1.36215927575349    3.09455454507534
O           0.02595819456652    0.51291091572261   -2.55285918800050
H           0.64262443737641    0.08929395678839   -1.91571067813555
O           0.71163795588502    2.26294488743229    1.07167018201532
H           0.75992752805878    1.48177209420583    1.64915508173381
H           1.51779104311184    2.14461134912146    0.53399794724974
O          -2.52631355165245   -0.36656218678656    0.27008871912700
H          -2.22810590381397   -0.98815973598234   -0.42593211749345
H          -2.05559196766036   -0.68853567290551    1.06719519516851
O          -1.14122641935804   -2.01122840836545   -1.35998557505137
H          -0.52003769210562   -0.21142816490361   -2.87455807781843
H          -0.28292331521371   -1.66407467235103   -1.04175113232365
H          -1.19289651867180   -2.90960857574535   -1.03006498136232
N          -1.28553864142212    1.76284902961655   -0.60105637353788
H          -1.86049381650800    0.95257165634533   -0.19032201677389
H          -0.80392023533566    1.38837878917256   -1.46295344189587
H          -1.87541573026176    2.55642308084815   -0.82428170577375
H          -0.53127643223902    2.03820789144367    0.09146668570424
