    26
        -50.45509209  Gyration_radius:  2.70165709351 Dipole_moment: 5.391
 S          -2.76306752900495   -0.59257276392370    0.37492202399023
O          -1.63928254558209   -1.49557977815788    0.26856234180964
O          -2.76504093930413    0.39536805278331   -0.70947218087048
O          -2.87401622129018    0.03979133013721    1.67779592401617
O          -4.07805435541126   -1.46449969834425    0.18255247816994
H          -4.78404667249581   -0.86071889060775    0.39783321277034
H          -1.31699634736045    0.33697605603878    2.07319869150165
O           2.58113769025820    1.63668764996565   -1.15186009564289
H           3.47865501414316    1.94763985503665   -1.27311735920471
O          -0.32768324307754    0.36000022661141    2.06706996010427
H          -0.07165968070809   -0.56185094016039    2.17795349622569
O           1.45501272904851   -0.55831000660710   -2.18842365492909
H           1.31723740652610   -0.53905274249691   -3.13590026066182
H           2.03910347941729    0.19773551884806   -1.95937150665977
O           1.03249613472937   -1.76270868565431    0.38082832827259
H           0.05617387047819   -1.79179608533378    0.37422871434043
H           1.29169763883404   -1.83291469895892   -0.54368198729490
O           2.38089396500746    0.44669900693534    1.19676285389989
H           2.54943344683847    1.25878881904591   -0.23551489379540
H           1.76579719895683    0.80196492998971    1.84575697383101
H           2.01985103284416   -0.43389350512264    0.95753674361572
N          -0.25520810274159    0.91248160286079   -0.56735691580895
H           0.08935886521642    1.83993885190260   -0.80262174537481
H           0.26643594835187    0.20589100264973   -1.12048450961574
H          -0.14053289342939    0.72055603776380    0.46422058885193
H          -1.30769587017423    0.79337885466671   -0.75141721156854
