    26
        -50.46829163  Gyration_radius:  2.47596224149 Dipole_moment: 1.520
 S           0.98248623524611   -0.48562581103140   -1.81085530286068
O          -0.38216953801331   -0.71328404061547   -1.35629019424213
O           1.88538040554661   -1.54751388065271   -1.42712090862983
O           1.44227910368391    0.84197132004819   -1.42813598442765
O           0.93953037480463   -0.52047909407733   -3.39788349459877
H           1.61974595013284   -1.16254101762194   -3.57046844262880
H           0.34322524286380    1.95501387592810   -0.89741521539898
O          -0.21120444224506    2.65841434185757   -0.49082477560322
H           0.30250270215067    3.46462315472680   -0.55486396229147
O          -1.03635825363544   -2.29116535357111    0.64997201233196
H          -0.68601718684404   -1.89287524016532   -0.17728499308738
O          -1.30662854485190    1.47262954148805    1.64751838205703
H          -1.97235698222654    0.98544803922100    1.11901272988650
H          -0.86634413461936    2.03712108976215    0.97835083283323
O           2.48561035936331   -0.22468241468008    0.75752551568402
H           2.48750787289341   -0.98395367471181    0.14350245718102
H           2.28830129620535    0.50520553121553    0.14586606902779
O          -2.67109517050039    0.09643496625537   -0.22959715128930
H          -1.85243121212188   -0.14642178714840   -0.70850096423861
H          -1.97034632390025   -2.05878645449680    0.65006785885729
H          -3.13247264278632    0.70899586506813   -0.80451089528844
N           0.26936976835352   -0.54450015440935    2.17829615266035
H           1.19990533339502   -0.40353054291539    1.68933961097810
H          -0.23050932435869   -1.33554202947527    1.68878617510463
H           0.40729915921169   -0.74902757675370    3.16150830067404
H          -0.33521006790675    0.33407133721792    2.04400617728004
