    26
        -50.45514053  Gyration_radius:  2.75141426828 Dipole_moment: 5.665
 S          -2.44500436322588    1.55968774546214   -0.08754420343482
O          -2.00291849490027    1.03773821699191    1.18043858350071
O          -2.60242427832280    0.51280532797215   -1.10522598756823
O          -1.61960259048154    2.64824771921456   -0.59296825146251
O          -3.89507752586716    2.16469919663393    0.13467587654151
H          -4.10944850054919    2.50556914849111   -0.72852548904608
H          -0.11623926504043    2.24384676599083   -0.83633138642606
O           0.79348324016058    1.90656832609896   -1.07539976847261
H           1.13446567334173    2.52360402980029   -1.72436749033791
O          -0.12041589650425   -0.72730749020944    1.65985288798203
H          -0.87666827677219   -0.10215834162107    1.69391253939647
O           1.00762622750694   -3.12896754826768    1.13470219131615
H           1.42834634792593   -3.50667110985820    1.90842945827156
H           0.46029652936600   -2.38977180916042    1.45930838268940
O           2.36487528707836   -1.65966537620397   -0.69002448437001
H           3.23332486919687   -2.03078891899471   -0.84809150897941
H           1.90999497659406   -2.27122172925667   -0.07253081127870
O           2.10843950759130    0.56647788017434    0.98724342644926
H           2.36915837675311   -0.14550486475253    0.37827202473727
H           1.74511783302748    1.26292196317058    0.42098408073636
H           0.69261784511835   -0.17047880482977    1.68351599031492
N          -0.28353292232296   -0.58543963221114   -0.99961011344182
H          -0.02147560212137   -1.38584919873400   -1.56597180957152
H          -1.29244810978648   -0.24958871154895   -1.14677306807706
H          -0.19217780781717   -0.80610265513871    0.03180926772985
H           0.32968692008290    0.22734986068417   -1.19978037722590
