    26
        -50.45387512  Gyration_radius:  2.63132809377 Dipole_moment: 5.311
 S          -2.31696461997696    0.42379416196416   -1.18379318007946
O          -0.96043299081662    0.94007244155865   -1.44511104304368
O          -2.87353111865100    1.01201274614977    0.00196892394761
O          -2.32279962528375   -1.03067853458722   -1.18492000461827
O          -3.19964047726924    0.87394068348442   -2.42300563959489
H          -2.90011821107101    0.32685043893124   -3.14530717499053
H          -1.86365443167207   -1.29171168864200    0.30301671571629
O           2.11666826257638    0.28595177015997    1.76251545426306
H           2.49948497333002    0.10217450605688    2.62055910861047
O          -1.58183137867412   -1.27217665518852    1.26092177624694
H          -2.40361178671468   -1.29923365460644    1.75527063188282
O           1.16037388510949   -0.71675924892817   -1.67155914232346
H           0.33754794697051   -0.19985494901432   -1.72899052845787
H           1.86447258937369   -0.05634253661666   -1.54652779837150
O           3.14307000337706    0.98760566497100   -0.72935412152964
H           3.99064997239655    0.55807478085956   -0.85491198122736
H           2.88870868720052    0.84115850406189    0.19619416451985
O           1.15037957126690   -1.84975576795896    0.71297486317641
H           0.21762225895779   -1.93609258948570    0.94458706535181
H           1.16040680193521   -1.58083118857489   -0.24255948161197
H           1.80455947239263   -0.60404346272437    1.39057103440689
N          -0.36095100780782    1.12000942984476    1.06483980526456
H          -0.46029160064691    1.18922386325403    0.00244275492772
H          -0.87900646543184    0.23052453024981    1.29330620582697
H           0.63151892070539    1.03392141089658    1.36801594574723
H          -0.84262963159387    1.91216535388458    1.47885562596116
