    26
        -50.45821267  Gyration_radius:  2.4805445872 Dipole_moment: 9.147
 S           0.75814268946735    0.63608689715049   -1.99944252777784
O           1.86295429177813   -0.31373869433034   -1.80667249461936
O           0.89598167579782    1.83477609541419   -1.23293832668345
O          -0.51797968192324   -0.05296224468281   -1.79442714838204
O           0.80434877711303    1.02623777104542   -3.53065138347569
H           0.80777877334326    0.17348089370016   -3.95222224662030
H          -0.70112483637091   -1.40631120438973   -0.96242520320824
O           0.56505898439674    0.28038846160280    2.34299106569452
H           0.66139727813202    0.27793718989365    3.29595880346514
O          -0.73761571943305   -2.23440116706796   -0.41002051753429
H          -1.20496768888970   -2.88444034062996   -0.93576639082569
O          -0.25365607946797    2.72663301920442    1.04613483982858
H           0.22026823230336    2.63778437821962    0.20301027829581
H           0.12846825745288    2.04727000331307    1.61668280175984
O          -2.22932721723287    1.21252593496289   -0.02779518964211
H          -1.70449122983835    0.86339591148760   -0.76623249535339
H          -1.68485197600566    1.92909870331786    0.36035832806229
O          -1.72754733088389   -0.68038483942681    1.70701711112799
H          -2.08141660041977    0.05445191235000    1.13374760170423
H          -1.54081399732554   -1.39573585972520    1.08267987282585
H          -0.37265455352861   -0.05939630720641    2.15231972384870
N           1.63008270951350   -1.34492828460922    0.51803675193178
H           1.35246417351311   -0.64296354625842    1.25209106964544
H           2.43641053234827   -1.88629520983808    0.81095332327188
H           0.81055458517955   -1.95041874668468    0.32647130433098
H           1.82253594080794   -0.84809073674707   -0.42985893166736
