    26
        -50.44523597  Gyration_radius:  2.65724630228 Dipole_moment: 4.323
 S          -1.97707813318294   -1.67756761387040    0.82566076474876
O          -3.05479623294014   -1.05120365729749    0.10125162051739
O          -1.28857248026995   -0.81719434280414    1.75998966097831
O          -1.03019811780848   -2.34494049292395   -0.08683617146118
O          -2.63005091086322   -2.84691005401740    1.68396221188014
H          -3.29764757259495   -3.18651755908559    1.09589467274664
H           0.32242781297222   -1.99478290147650   -0.12624938961729
O           0.99389888088913    2.33054563350750    0.92333826958525
H           1.28283510221196    3.09446337452230    1.42374655355212
O           0.67699001640296    0.10732868250095   -2.07315990786286
H           0.30550033627063   -0.34675035915033   -2.83048437293986
O           1.29611443952310   -1.56000964045103   -0.21850186935621
H           1.38251843328209   -0.97815318374996    0.68015422116647
H           1.16376012718488   -0.90943218068170   -0.98691686711195
O           1.22843266396266   -0.18925791463462    1.85469400948848
H           0.29046664712226   -0.44436467775127    2.03060050655911
H           1.18040096558234    0.75661307629129    1.59901645044880
O           2.48259214706633    1.98922155820928   -1.29368260259316
H           1.52946070237606    2.31051954827221    0.09974980196060
H           3.29047365083726    1.49455781593818   -1.14377365571769
H           1.87338353732734    1.38801444723735   -1.75835533513335
N          -1.27138782500242    1.00339626535519   -0.67624931462217
H          -1.91101850542610    0.25291488563131   -0.40596925186144
H          -0.13749941621555    0.49692548541340   -1.53875225126727
H          -1.82206385092605    1.73149541270057   -1.11499137481623
H          -0.87894241770672    1.39108837251040    0.17586363083054
