    26
        -50.44523615  Gyration_radius:  2.65745294166 Dipole_moment: 4.329
 S          -2.22199583422838   -1.51347076120505    0.42482634032104
O          -1.88388193185196   -2.58585473745403   -0.47749755444702
O          -2.31489032008038   -0.20777720329696   -0.18642313130274
O          -1.32889013035618   -1.49407350666327    1.59804059862045
O          -3.66686165808156   -1.84710807599755    1.00081374768996
H          -3.63655234760239   -2.79374903933424    1.10009635072828
H          -0.54775010952158   -0.37785283014588    1.90994814363412
O           2.00575999485115   -0.63907951611025    0.58856325089707
H           2.26233804867354   -1.48578246705139    0.95599436109248
O           0.64156205342891    1.94061683535594   -1.75888694783459
H           0.67643180764886    2.66236533474332   -2.38762066125500
O          -1.00030909330039    1.95767406366478    0.37982814529427
H          -0.44089049354557    2.03536584446046   -0.42236324975572
H          -1.66666579296490    1.26587398817941    0.14899865143426
O           0.13837661817648    0.44011892118332    1.98633272118828
H          -0.30794938225066    1.18396729486570    1.35247778308115
H           0.95207197598128    0.07798420338542    1.49893624812640
O           2.94592595130668    1.72327280055935   -0.38385946353642
H           2.80360183225568    0.82000009134663   -0.04876623313348
H           1.53255945213012    1.87622749869069   -1.34968733078806
H           2.99164949439564    2.29444910836287    0.38523934613114
N           0.36522950450814   -1.09006336898805   -1.32425093536784
H           0.75576624450427   -1.56707501495407   -2.12788775200450
H           0.01908373832652   -0.19083157651677   -1.64357181483895
H          -0.43981884165577   -1.63317880437424   -1.00459738311702
H           1.36609924925143   -0.85201907271248   -0.21468324090887
