    26
        -50.45499973  Gyration_radius:  2.40465964973 Dipole_moment: 8.856
 S          -1.90131780967578   -0.04912917746377    1.09942839025572
O          -2.10054701536937   -1.30483271704832    0.38366895199236
O          -3.05606821099416    0.57566204657077    1.64564008915409
O          -1.31972316631094    0.95514575062476   -0.02885136547565
O          -0.77863740154589   -0.15895087038266    2.05059740270843
H          -0.00321014382069    1.20132142821609    2.03728470910953
H          -1.10450509559972    0.33408458032349   -0.74277731284809
O           0.45778658080470    2.05513954163473    1.79551862197742
H          -0.25990281011112    2.66145602928688    1.59826940111034
O           1.65990303282038   -1.55483943343834   -0.40223673879035
H           2.43490471471655   -2.11553848764577   -0.45120684912627
O           0.11596903868195    1.50745218175930   -2.53232190621106
H          -0.19890214591996    0.58941592443807   -2.60822141924069
H          -0.65766566312862    2.03358797053988   -2.31403218098365
O          -0.69645683258071   -1.01002482581507   -1.77776812494067
H           0.16025608990375   -1.36906592357858   -1.49749941887441
H          -1.34543860005919   -1.34347465193900   -1.11297213080326
O           0.10250155709003   -2.48851648260256    1.40818405578410
H          -0.13231752431005   -1.63803427936317    1.85396522937671
H          -0.73401707829861   -2.71779411572378    0.98148404990953
H           1.08412328774519   -1.94575499994906    0.33662711574191
N           1.67070856023744    1.16143471039234   -0.34796538679706
H           1.72707519419309    0.11952100775125   -0.27833848712373
H           1.16857129125663    1.55089670221578    0.52586222416752
H           2.60196949686417    1.55895399715984   -0.41873056845338
H           1.10494066341130    1.39188411403580   -1.20360835161716
