    26
        -50.46290502  Gyration_radius:  2.46785471135 Dipole_moment: 5.399
 S           1.66816572814258    1.00507825997585   -1.22780012652121
O           2.55767400606929    1.34777990483029   -0.15858966919319
O           0.36441579159641    1.67538769413977   -1.08884763013249
O           1.48125786536938   -0.43528227596569   -1.38388417240760
O           2.28520004718878    1.52557725863868   -2.58595847194649
H           1.68662468890283    1.22157793907656   -3.26374563824962
H           1.64075384112185   -0.88058963116348    0.17619055256636
O           1.69602675929736   -0.93621990292315    1.16342298315817
H           2.61127300447539   -0.72029546527239    1.35967926005578
O          -2.21694023143822    0.03337053016104    1.54940486189203
H          -2.93709973398037   -0.12985662462215    2.15867902401148
O          -2.10112158218413    0.50049261502109   -1.30155069113358
H          -2.35046039172253    0.45562674960512   -0.36922282451420
H          -1.27543685837380    1.01165727101413   -1.33618471456084
O          -0.84137562470991   -1.89337560819952   -1.51790779892350
H          -1.45149287185256   -1.13431923562181   -1.61225864446169
H           0.04555685499932   -1.50996831027837   -1.60791521737058
O          -0.91606950195137   -2.14606863269479    1.09948428668751
H          -0.94674572421732   -2.21054543403702    0.10726636631052
H           0.01525406308426   -2.01634701491008    1.31045732274386
H          -1.77872822344951   -0.86145034021090    1.38249412071400
N           0.14666705645401    1.23722962760158    1.45970539002900
H           0.80037802542009    0.40951010328889    1.49909265402450
H           0.19956471583548    1.56882906938921    0.44718787482398
H          -0.83146080297924    0.90871916038375    1.65195546149936
H           0.44811909891695    1.97348228279217    2.08884545089223
