    26
        -50.46886229  Gyration_radius:  2.508712214 Dipole_moment: 1.106
 S          -2.13194817803531   -0.06941141249614    0.61981371574539
O          -2.19924361868482    0.39884234453860   -0.76346978562291
O          -1.92019461899259    0.98177205464474    1.57425902030381
O          -1.15649139980666   -1.15529732549555    0.74357437095685
O          -3.54273538776710   -0.71276219096320    0.93095040238212
H          -3.66670871378957   -1.33305972138250    0.21914268980548
H           0.23424215112921   -0.91856111239006    1.52449190689081
O           1.51875430530124   -0.23207882122759   -2.12572796228560
H           0.80529814813866   -0.90670808519527   -2.16567791863987
O           1.09243536667774   -0.73819096030992    1.98538338159147
H           1.08030468159758   -1.27477217018916    2.77937866653746
O          -0.72959530321861   -1.67566306753839   -1.83698551552923
H          -1.39210637957642   -1.02110236653775   -2.08471145763362
H          -0.77235354625175   -1.68545753648852   -0.86211686810527
O           0.55949809737137    1.91446636733765    1.52720577185103
H           0.98642275061109    1.09303560186248    1.82074766158596
H          -0.38959017076016    1.76228471624143    1.71586742175967
O           2.99249138617483   -0.90560066081231    0.03856160887922
H           2.32519358260543   -0.92669234251338    0.75085456653493
H           2.14131574384229   -0.55059254310496   -1.44124748002945
H           3.68961641334432   -0.31806277368148    0.33305962005944
N           0.10039386212900    1.67530580773642   -1.06666263161748
H           0.07828484765726    2.53816163194536   -1.59939533406265
H          -0.86161735282874    1.25291073157418   -1.01391375095513
H           0.75111085854270    0.94819396821500   -1.53611079227776
H           0.40722247460006    1.85903985620458   -0.06727132812713
