    26
        -50.45416783  Gyration_radius:  2.41830166014 Dipole_moment: 4.212
 S          -1.32449470944506    0.16954188608850   -1.04415842979789
O          -2.02419820931231   -1.07351740405441   -1.03840325115573
O           0.01769689883253    0.08852215762424   -1.57869981449376
O          -1.25462017387260    0.74981623979080    0.39467030043879
O          -2.11332153185052    1.24965220090106   -1.76167925553298
H          -1.73374459924205    2.15192637454441   -1.42491409484813
H          -0.94557620926685    0.07707854402192    1.09075056479667
O          -0.52607165567910   -0.95806193506230    2.14028120642329
H          -1.28042964168270   -1.16860334601409    2.69357055067561
O           1.26227652727804    2.25307544348572   -0.58205275550267
H           0.96798138911915    1.50361196644818   -1.12540997193054
O           2.09245562209487   -1.33905002326412   -0.69595421296802
H           2.84935975386965   -1.16055464143383   -1.25719463552468
H           1.33776192949670   -0.86182955044048   -1.09619278107680
O          -1.10813207244621    3.31727922925317   -0.73534671734327
H          -0.14231441650904    3.06163467096597   -0.67607648755250
H          -1.43988412509672    3.28662093554455    0.16581994818648
O           1.85114071451628    0.47788025238610    1.41277768157341
H           2.08311226969875   -0.22929766768727    0.78724513423585
H           1.53520621252798    1.84305823819684    0.26214521360012
H           1.13706773568664    0.12002990623782    1.94986303681852
N          -0.23801010052904   -2.82291514719540    0.38348649028405
H          -0.36974500227624   -1.76957652403647    1.53055587709963
H          -0.40934145849256   -3.81282366753082    0.50113070798500
H          -0.91265595330767   -2.45099559681884   -0.28341484432880
H           0.68848079588884   -2.70250254203934   -0.01279945001995
