    26
        -50.45416784  Gyration_radius:  2.4182651328 Dipole_moment: 4.210
 S           0.19483744216492    1.60047190034644    0.52386706549356
O           1.34653913197055    2.12094637620839   -0.13742995339074
O           0.47656928101686    0.50118518307245    1.42156675079739
O          -0.85609163530455    1.13513854089630   -0.52060275965769
O          -0.57127866898864    2.69108483694787    1.24999946785560
H          -1.52972031843285    2.32451195528297    1.38676301705069
H          -0.46944544241451    0.54673363445078   -1.25324466014922
O          -1.88516344262489   -0.75275331237924    1.69888520303880
H          -0.99556582331323   -0.38314298220778    1.82344321057656
O           0.13245590167823   -0.29913078580177   -2.38095388851211
H           0.12445073710962    0.20910124510808   -3.19407949297115
O           1.52365326010417   -1.89108397647346    0.87115677534117
H           1.56370831614600   -2.40284268846692    1.68126373736456
H           1.21017929879364   -1.00013032743286    1.12684039660746
O          -2.85575183693161    1.64185511017525    1.38579971440121
H          -3.14964990499351    1.66009927503740    0.47126872574686
H          -2.62562205869088    0.68658731052990    1.57611942136554
O          -0.92463922503586   -2.14303923504906   -0.45079563705272
H          -1.79740447177088   -1.32613917206310    0.91228559849385
H          -0.78873408808261   -1.68362923836735   -1.28560128384318
H          -0.03901122338973   -2.23749796182020   -0.06092320857936
N           2.50146027807255   -0.20846172228548   -1.36762644491750
H           3.38361838593729   -0.19333417012738   -1.86229801147256
H           1.10897607826136   -0.33868246771887   -2.06545671248336
H           2.54048765911092   -0.93912566386027   -0.66439223043017
H           2.38114236956093    0.68127834600685   -0.88585482068389
