    26
        -50.45882472  Gyration_radius:  2.63378471571 Dipole_moment: 6.264
 S          -1.53176212674749   -2.28481849630057    0.10173146648886
O          -1.84590157291142   -3.62256472778505   -0.28713679273110
O          -0.38836808048979   -2.14083429347321    0.98605000011680
O          -2.80616805675038   -1.77602367218383    0.96205718794204
O          -1.44215160911223   -1.31945120703183   -0.99841937088414
H          -1.40995365425356   -0.17625486622171    0.11024899066475
H          -3.28282817863939   -2.59340325624204    1.06037775463574
O           1.86314045613646    2.98008169875552    0.28757423090885
H           1.80035751190582    3.74161538089712    0.86489165147069
O          -1.39268950306008    0.61562729430788    0.70474388695185
H          -2.08634327876162    0.44203082251822    1.34414092683265
O           1.93871536271098   -1.38719818326258    0.18943661958439
H           2.54841789380681   -2.11053419817117    0.33941935673062
H           1.04873094710833   -1.71404693032621    0.49823124314192
O           0.78704478436093   -0.39096703293050   -2.05225696917372
H           1.40634267523763   -0.71654980627123   -1.37065348655502
H          -0.05721848371684   -0.84914525544290   -1.84260574354080
O           1.24336084991566    0.83932443587169    1.65253432286190
H           1.76250865157694    2.17925293477271    0.87302268172222
H           0.29446136149901    0.69667040514214    1.49844105053093
H           1.67394822335263    0.06647854497777    1.25059456985125
N          -0.03444905092131    1.93236139399308   -1.24672302388447
H           0.37721738238481    1.00780035765757   -1.65368817252739
H          -0.72104559931768    1.63516122149777   -0.53100816691545
H           0.73203593236682    2.46770217160249   -0.76379111673848
H          -0.47740285778374    2.47768527381496   -1.97721307744890
