    26
        -50.44637526  Gyration_radius:  2.50006948025 Dipole_moment: 6.920
 S          -2.26873861646593   -0.21845135509014    0.83199589575677
O          -1.75115156139288   -0.37592711039958   -0.51446757496107
O          -3.56011884518569    0.34908600016639    0.94342501727197
O          -1.22123850709649    0.64708891569296    1.61277109582176
O          -2.17107524459573   -1.55381574433781    1.57817181604423
H          -1.53653079429316   -2.16591031963428    1.07348432488640
H          -1.19193370795522    1.49328123380724    1.06038852631600
O           1.50129000259653    2.28384559396368   -0.44337157681413
H           1.95785554406949    3.08991932493182   -0.19774434723933
O           1.84185403830730   -1.70971087139965    0.04491358291887
H           2.65762970159359   -2.14775652911477   -0.20023110499178
O          -0.62531927949377   -2.80917815611355    0.00542497298778
H           0.30776110748483   -2.54914824846354    0.15399338507904
H          -0.96313014325222   -2.19412914826948   -0.66034672202371
O          -1.15177280988082    2.43542972617420   -0.18292788935617
H          -1.56647787048945    1.84341711482466   -0.81793818751498
H          -0.18523774352510    2.45769055318133   -0.38861021872014
O           1.59955400548025    0.56850874963655    1.56173647488744
H           1.61533473875571    1.65875631037199    0.32228799651912
H           1.77307196422884   -0.30384637752721    1.16544861523030
H           0.68057417206373    0.54557215526933    1.86058339763572
N           0.82775679437925   -0.22829358189485   -1.87634978113833
H           1.54377244042397   -1.16185556850802   -0.74869471619060
H           0.83321595622919   -0.44907529895870   -2.86359612766749
H          -0.14033891495823   -0.21665887634355   -1.56049519747717
H           1.19339357289900    0.71116149802743   -1.75985164729515
