    26
        -50.45788913  Gyration_radius:  2.41128011512 Dipole_moment: 7.662
 S          -0.70813062155936    2.06037934308703    0.62598507308424
O          -1.46025859006989    1.01534751547868   -0.13228021965507
O          -0.96805887643191    3.37142361214057    0.13563977409606
O           0.81530818611058    1.70420285103319    0.36866214106202
O          -0.86123224988416    1.82505751943645    2.05012576843577
H           0.16157026928612    0.68196350866512    2.31795714477390
H           0.98903249086669    1.67410153513913   -0.59853571389734
O           0.67884763145603   -0.16715021124735    2.45456510089133
H           1.16815022447155   -0.05031080152061    3.26975047040742
O          -0.06727472370594   -2.42944127246803   -0.89036200617280
H           0.26521560150160   -3.28047855744058   -1.17688106062666
O          -0.82714849461697   -0.17150419477671   -2.43073718741398
H          -1.22903666874061    0.33334988166931   -1.69477573290102
H          -0.66799965928070   -1.05816664546223   -2.07568509396416
O           1.39088623396195    1.18475585498752   -2.14082212553635
H           1.39860394361327    1.94092434234360   -2.72926746981231
H           0.58621135448713    0.64906484852950   -2.38434283293974
O           1.88266771203947   -0.92931264708119   -0.01577600566515
H           2.02103295852196   -0.20585783192899   -0.63808060869251
H           1.59021719622358   -0.51517872688407    0.81474805861408
H           0.72831880132611   -1.89895193696073   -0.59930097126789
N          -1.39658456876077   -1.18180300070156    1.11255375952603
H          -2.27271083092658   -1.45927250315713    1.53887120500343
H          -1.49800279158307   -0.20136717172987    0.59413184518978
H          -0.65283117787565   -1.02998344737110    1.82015053193349
H          -1.06679335042899   -1.86179185380123    0.40370617553462
