    26
        -50.45364406  Gyration_radius:  2.46396964129 Dipole_moment: 7.668
 S          -0.75281302867052   -0.15838992159595    2.12054168185715
O          -1.66076037526384   -1.28018294219934    2.10090733379426
O          -0.58854007204263    0.47247013425844    0.81799563184562
O           0.52146509064784   -0.43407547499691    2.75424266421295
O          -1.45923463206672    0.96550308705922    3.01778888018213
H          -1.75222949146245    0.44080278123921    3.75473277617471
H           1.76112726121600   -0.23638314387947    1.74165782258875
O          -2.10638123053356    0.01692182583726   -1.99220578592304
H          -2.52148765741909   -0.46404633584809   -2.71024506463817
O           1.43305763387015   -1.46439370733259   -0.92590144577283
H           2.04924075057369   -2.17476871204245   -1.10780483930294
O           2.39676898270667   -0.05307886224394    1.00365768368376
H           1.80688720260541   -0.96408140246515   -0.13423240213936
H           2.25566252762855    0.87289619288264    0.77659131714176
O           0.94975842852543    2.30797422576906    0.04266810632233
H           0.34794181170249    1.62573003842353    0.47608976250774
H           0.55732944472956    3.15876887363031    0.24257749196316
O          -1.36728097109579   -1.93597353810928   -0.44227734451797
H          -1.56570707631678   -1.74537440497745    0.49926575163727
H          -1.92753936159873   -0.66955397729666   -1.28228230338714
H          -0.40392234256806   -1.87965982332603   -0.51400604771133
N           0.41640774287987    0.73434137991320   -2.07602500990455
H           0.86658496640929   -0.15241633518108   -1.74860847115675
H          -0.63607357415436    0.54459437372241   -2.07580456998311
H           0.62553455888979    1.46152530924987   -1.34827602315849
H           0.75420343077781    1.01085035952213   -2.99104761630787
