    26
        -50.45364400  Gyration_radius:  2.46292547085 Dipole_moment: 7.672
 S          -0.83173250635893   -1.89112807198032   -0.89781576442982
O          -0.88676240374774   -0.52831262712972   -0.38682700449081
O          -0.68289500981171   -2.88399465545771    0.13913962080695
O           0.11197816315247   -2.02315293971490   -1.99017249151543
O          -2.28234211627676   -2.13237001193975   -1.53460780140323
H          -2.27493198494607   -3.07824072218990   -1.63204569747596
H           1.03887849522488   -0.71205030161889   -2.14814458193826
O          -1.07799827235481    0.62481128641616    2.61581540305730
H          -0.89273490063078    0.69644908320218    3.55378012953745
O           2.19205677435563    0.34700487345597    0.36040501209528
H           3.14762365854734    0.29671146817635    0.40298304197525
O          -0.94877868543795    1.68920916447719   -1.57713076984136
H          -0.97600839465853    0.74956045508465   -1.21488120377422
H          -1.85096527556887    1.89336500451269   -1.82636729756065
O           1.50068882784190    0.16420347700153   -2.11679416638815
H           0.80816876615087    0.81711607338818   -2.26816190411730
H           1.94707328961514    0.21717033351464   -0.60875998906875
O           0.48122031874857   -1.34612000167347    1.94568585101361
H          -0.61845667671788   -0.21628169833930    2.31859594490237
H           0.02429070488221   -1.98102981710300    1.35375020797511
H           1.12422793482612   -0.89322566380733    1.38198451530677
N           0.19267766296583    2.07092909996110    0.83187061677937
H           1.05362910798552    1.48801360603729    0.70823689940206
H          -0.31011649200981    2.06006691308226   -0.08960811855702
H          -0.40631718304970    1.55656960020673    1.55300993755166
H           0.41752618729012    3.01472605248686    1.12605961012728
