    26
        -50.47250313  Gyration_radius:  2.48725417677 Dipole_moment: 2.880
 S          -1.06449195595478   -1.87359140218114   -0.70680484013129
O          -1.07226265779644   -0.51694961757830   -1.21969971785788
O          -1.52858803568425   -1.93744735421217    0.67366753066016
O           0.20482783191640   -2.55212471657607   -0.88624487033184
O          -2.11995243572714   -2.67732818585238   -1.57264749279918
H          -1.95120174826111   -3.56841513892548   -1.28623832248987
H           1.42748297366696   -1.74951586767656   -0.25371339471954
O           0.91474372615807    2.57645203570751   -0.34007954371902
H           1.33668388208904    3.36089453161459   -0.69096817882972
O           2.18478189154298   -1.20636765294702    0.08933398424964
H           2.88759652871798   -1.82784818830256    0.28460288361233
O          -1.74977760166017    1.88728451077807   -0.19590908993582
H          -1.68564439797010    1.09589087720487   -0.76193091451263
H          -0.88407638600740    2.32658624000284   -0.28382005260682
O           1.38115167831174    0.82369970318105    1.73302047606183
H           1.33265869535061    1.56545189379653    1.10326450751033
H           1.73994240600189    0.07458659353004    1.22062572140167
O           1.29170482142491    0.52495613880473   -1.90051176104452
H           0.40678079865017    0.11376187375301   -1.82976246131932
H           1.08634205684209    1.84351063408082   -1.00018390459222
H           1.86867439523116   -0.05379203535971   -1.38085291933882
N          -1.21396180381511    0.35650834770268    1.87187881273717
H          -1.68678849992272    0.44894215233272    2.76335960841512
H          -1.56458583889957    1.06086270845042    1.15451042834554
H          -0.16641083337809    0.50878822258577    1.96239146293822
H          -1.37562948082815   -0.60479630391973    1.45271203826841
