    26
        -50.45099167  Gyration_radius:  2.71368967043 Dipole_moment: 4.688
 S          -2.53369802454901   -0.18483176858685    1.02685509067867
O          -2.93025969598345   -0.31808309380910   -0.37797263220753
O          -1.58392821315303    0.87605030603972    1.24287053270607
O          -2.10275039684367   -1.46878589933432    1.56762410638704
O          -3.85873078009146    0.20595729349642    1.81187797103067
H          -4.44896778608623   -0.51181691971122    1.60164557751195
H          -0.75022276249729   -1.79118446109970    0.90019192427349
O           2.54887883445581    1.39481817410962    0.31702996196710
H           3.05531393119753    1.96938116299462    0.89237943762276
O           0.07396736047758   -2.03515093601356    0.37729837458021
H           0.03677179498545   -2.98949612620889    0.28799349385354
O           1.94793422043281    0.61000896880631   -2.35611908770727
H           1.90300916618733    1.45231367658883   -2.81156663594479
H           2.27443653377311    0.81623015339538   -1.46910379408256
O           0.01093979516403    2.15048584768246   -0.44266093848595
H           0.90451583427912    2.01483762922227   -0.07973947260993
H          -0.61009185843089    1.90052499714429    0.27235326860976
O           2.31138610987167   -0.98246938716965    1.48742103858518
H           1.44116199145674   -1.32543962352469    1.19993660863586
H           2.96653236294204   -1.60716389365567    1.17108568658059
H           2.44062347288715    0.54324643083684    0.80308601270683
N          -0.61587278774315   -0.15516558082497   -1.51614211143814
H          -0.45682414831599   -0.29682142966043   -2.50835960784291
H          -0.11448814407537   -0.86941560789317   -0.96283594020792
H          -0.27247236546636    0.81711418597232   -1.21751618663938
H          -1.63716445505125   -0.21514408872518   -1.21763264849502
