    26
        -50.45099325  Gyration_radius:  2.71424325004 Dipole_moment: 4.610
 S           2.55918878142285    0.20619457050464   -0.95161342572031
O           1.83679375612189   -1.00357620805349   -0.65371038671206
O           2.76963072651356    1.04982503387312    0.22841032238257
O           1.97442214516225    0.97777886058887   -2.04228466043493
O           4.00973258092016   -0.22232200742521   -1.43832901635688
H           4.43797857382774    0.61505603648962   -1.59051978451624
H           0.51998002362442    1.28760508602977   -1.63264316149639
O          -0.38701904275052    1.57184614052731   -1.30287796309213
H          -0.52555871817072    2.44252889184767   -1.68083116340271
O          -2.22124472790417   -1.87583339528132    0.34195165036444
H          -2.54577187580935   -2.74277513123941    0.09552526469190
O           0.30741850260598   -1.64728546513042    1.40864235456502
H           0.95236895886280   -1.63574279433077    0.67155684768151
H          -0.54951468253591   -1.88301054489433    1.00991289707134
O          -2.04703608141600    0.13799774288759    2.35490691652378
H          -1.85046519247861   -0.38694318788541    3.13267080132461
H          -2.25228694771765   -0.50323070995377    1.66049428150397
O          -2.27416219042244   -0.30759040722978   -1.80727531335279
H          -2.21093441649611   -1.33933843457052   -0.48564238631233
H          -3.05855513589571    0.24352022425760   -1.83244904542104
H          -1.51316648533089    0.29920064176226   -1.70620747631549
N           0.40453160564809    0.96691748310840    1.26639162702589
H           0.26774021373577   -0.08018479114222    1.45938525768493
H          -0.14690354560244    1.22640761145120    0.43194350506693
H           0.11535519265547    1.51512714318907    2.06999948584398
H           1.42747799142070    1.08782761054368    0.99259255150004
