    26
        -50.45099316  Gyration_radius:  2.71394596703 Dipole_moment: 4.610
 S          -2.64020800438145   -0.20995419616834    0.69320724631902
O          -2.78130385723933   -0.83495267194170   -0.62510958811545
O          -1.84069957879766    0.98750971609325    0.66270058681658
O          -2.19081896822341   -1.18295151219115    1.68220254767225
O          -4.10796016851349    0.21794938550742    1.12576740791678
H          -4.58521924196547   -0.60625274199009    1.09962320264360
H          -0.72057035432755   -1.50518409303903    1.34514782148788
O           2.32243002223999    1.77563764245628    0.15969554140494
H           2.65941862657708    2.57070806812156    0.57432469468285
O           0.19899511834609   -1.78358118674918    1.04660779540385
H           0.26505349648475   -2.71113243364179    1.28200879961801
O          -0.10755202006677    1.87036226129447   -1.13292096557141
H           0.71980092260308    1.98782026741929   -0.63233058399060
H          -0.81543232374246    1.77549981088424   -0.46263223768605
O           2.24322361722304    0.12805098530011   -2.16812329938856
H           2.14423226475962    0.78232056541817   -2.86177273711714
H           2.41220017111511    0.63537515821034   -1.36218841157194
O           2.11323198743578   -0.12417875973160    2.01136681049541
H           2.21423843203519    1.11236257849648    0.88162506929121
H           1.33865531483066   -0.66102000006881    1.74807967516923
H           2.86727882668914   -0.71665853422619    2.00747871823889
N          -0.33180000608171   -0.72174682280665   -1.44014812040340
H          -0.13197588378345    0.33293241066987   -1.44319974302213
H           0.13095842327136   -1.14566887299114   -0.61924669869311
H          -1.37949644571930   -0.82578156818958   -1.27388178102214
H           0.00331964921829   -1.14746545614723   -2.29828176057089
