    26
        -50.44557923  Gyration_radius:  2.5260521369 Dipole_moment: 7.133
 S           0.16453084343007   -1.07988180812719    2.19961053920342
O          -0.44947791185526    0.20168302674586    1.94463980248970
O           0.70180996217341   -1.26883392592325    3.49577386216544
O           1.25519415695588   -1.28759695970402    1.09389604448859
O          -0.82660456574910   -2.20877314020389    1.87149533587295
H          -1.11077465877141   -2.14931537741415    0.91152849356714
H           1.81860707045520   -0.45955535358499    1.20081004253983
O           1.48178767123337    2.03231151059024   -0.86447855735684
H           2.08383098953581    2.49502101548345   -1.44810981465924
O          -2.13405483500405    0.24142041572208   -1.64903313770224
H          -3.03746423241999    0.50503510077362   -1.82869663896504
O          -1.63597875075610   -2.12366026759719   -0.57503496904508
H          -2.45461177212703   -2.62246487875168   -0.60073318378667
H          -1.83365404933175   -1.22837484786237   -0.95015866729388
O           2.21242287760751    1.03556260858657    1.51820357733094
H           1.48081086302432    1.23858334486616    2.11070649389560
H           2.01830918410465    1.50667651108886    0.67602019491806
O          -1.15389535618516    1.96438276172172    0.03686781149457
H          -0.27095716467195    2.21055663199678   -0.27875062819884
H          -1.76973899741444    0.93366219856045   -1.02373702165744
H          -1.00026322489546    1.39368905417454    0.81142294450847
N           0.89078398408848   -0.36437808801639   -1.79509782936209
H           0.93572426836897   -0.94874595671080   -0.96533971170664
H           1.41696712681297   -0.82538858816325   -2.52627938127352
H          -0.07971039630248   -0.32406373686906   -2.08646211766338
H           1.29640691770122    1.13244874861126   -1.27906347380802
