    26
        -50.47250309  Gyration_radius:  2.48722322766 Dipole_moment: 2.877
 S          -1.75802030523054    0.28128300895931    1.40469169254819
O          -2.54874018593216    0.10854032678355    0.19218020555991
O          -0.57880976219262    1.09314245246437    1.17244492759488
O          -1.47006985588437   -0.98459514778683    2.05164385031953
O          -2.66179398095961    1.09805668725316    2.41737895108160
H          -3.32425819590433    0.45116632784323    2.63466162358581
H          -0.39047239994065   -1.84945799776910    1.26073720523266
O           2.55482967658031    0.55099418045053   -0.87111962233136
H           3.50050204395086    0.69587793226423   -0.90592326695142
O           0.32935408835438   -2.34597050809929    0.79005353390222
H           0.20475858201981   -3.26865914326817    1.01675970094844
O           0.80670851808011   -1.39753773193421   -1.72814352487580
H           0.63380291290670   -1.83330965437237   -0.87218226753062
H           1.54666578266351   -0.78651921597839   -1.56008737511907
O           0.46282200753892    2.34160101616312   -0.98261671895993
H           1.31653079048860    1.87243769481784   -1.01787132263355
H           0.10790724957119    2.14565656914210   -0.09582314904422
O           1.78745646771503   -0.09302437746983    1.53337802416298
H           2.33714365772255    0.32961360699383    0.08073301777767
H           0.94933642530071    0.41063646026191    1.56691242444331
H           1.51022851818573   -1.01667403587054    1.44444332960378
N          -1.07922458802285    0.43889470007984   -1.93575044435474
H          -0.39553335339921   -0.37393028491534   -1.96000594829512
H          -1.58999213812653    0.52792787511720   -2.80640285582206
H          -1.74077639475225    0.29340981606116   -1.11893522827451
H          -0.51035556073088    1.31043941279820   -1.71115676255849
