    26
        -50.46321145  Gyration_radius:  2.59851704938 Dipole_moment: 2.444
 S          -1.51885476501769    1.44544255324119    0.90535744385650
O          -1.29109184460022    0.60656800164585    2.06070323949678
O          -1.96139573123646    0.72220575429903   -0.27032709385939
O          -0.36188030915273    2.29183878582039    0.61100270542782
O          -2.70786157442689    2.42491079783137    1.27897546784962
H          -3.00252066347775    2.68036630920881    0.41157088422202
H           0.87904368435194    1.42007211943492    1.37524285861944
O           1.49953217171680    0.71527579178579    1.65870283403241
H           0.99835471850039    0.20412906724102    2.30086022725522
O          -0.80382206291565   -1.57346019788442   -0.82818055289149
H          -1.35910126637127   -0.76343998467896   -0.77271339881825
O           1.47547603288848   -2.71492402315450   -2.16430587281900
H           1.47464013333771   -3.53650395232288   -2.65603965608246
H           0.56137114145289   -2.55616246244446   -1.89023892971418
O           0.93210562889629    2.18215344289864   -1.66885224662709
H           1.54825773213386    2.91396503180972   -1.60424262410997
H           0.34090320146557    2.26302824191765   -0.88294698841556
O          -0.82375488245489   -1.96050544218688    1.81472653702975
H          -1.51230683652191   -2.43242472951970    2.28484425687326
H          -0.81351143257339   -1.92418733784554    0.08823547427598
H          -1.01434392633256   -1.00292285768149    1.95056556661439
N           1.52236627202048   -0.28515097725043   -0.80627305508987
H           1.41815787244760    0.61152634869398   -1.33405753625391
H           2.22464575487678   -0.90080139034202   -1.21090710878053
H           1.70307924050260   -0.03343536783611    0.19802478812581
H           0.59251169050291   -0.79756351270256   -0.84972721013771
