    26
        -50.46321207  Gyration_radius:  2.59865774162 Dipole_moment: 2.432
 S          -1.83160873893925    1.31332953144509    0.35781112106579
O          -0.96879476892801    1.83785164471696    1.39272658397933
O          -2.05781960430249   -0.11563701271777    0.44724732422949
O          -1.37773561089177    1.70262177380382   -0.97788360058894
O          -3.25247247465815    1.98544602002248    0.56270867608666
H          -3.80707395759523    1.36376292804823    0.10398305114295
H           0.25903636547429    2.04126109218673   -0.67831247293229
O           1.19852966712896    1.98283992440076   -0.40252051390643
H           1.17763974851014    2.16048312134303    0.54241120632804
O          -0.00706917440729   -1.66105814200762    1.02018236721692
H          -0.88012969409429   -1.25411294336809    0.82122725004449
O           2.21076563311561   -3.05100284308396   -0.17492521070507
H           2.53893852631756   -3.90788921265537    0.09870047982890
H           1.42511664690056   -2.87239033934384    0.36056039139187
O          -0.70064936151358   -0.04360850731327   -2.81537679737771
H          -0.56149116226398    0.50119290318160   -3.59201492677635
H          -1.07725819676680    0.56032206984780   -2.13190186099741
O           0.70036405118305    0.29345912522280    2.69658653356248
H           0.07484905082620    0.90495527075953    2.24222478244588
H           0.45781699683135    0.31410049856504    3.62321659521271
H           0.35002298760383   -1.10160989494979    1.74313583028605
N           1.25189825544294   -0.59322194439230   -1.06447463071455
H           0.74085346068272   -1.04637877749327   -0.25047280719772
H           2.07541456861527   -1.15993967124331   -1.25582172282192
H           0.59142503036066   -0.55381989033756   -1.87418665602342
H           1.46943175535403    0.39904329534953   -0.79483101279465
