    26
        -50.45790646  Gyration_radius:  2.4895312373 Dipole_moment: 3.303
 S          -0.11404105477767    0.98885289943970    1.87861973759037
O           1.05391850523791    0.25744378382499    1.39305067983989
O          -1.30899869839026    0.17313099079017    1.83915071369153
O          -0.24707616835956    2.27832287816917    1.23084278330280
O           0.15646735348173    1.30007562168308    3.40889566585822
H           0.69024262175280    2.08508273548550    3.35366970941164
H          -0.69871830273872    2.25345367023932   -0.32870163791156
O           0.07387914474522   -2.12736977867681    1.55379212526324
H          -0.71931280329059   -1.83889799080863    2.02331340179232
O          -0.99476966372635    2.14066938375817   -1.26640670414399
H          -1.61724264642717    2.85043524627566   -1.43386672319727
O          -0.72156143031968   -2.31810972929385   -0.84111108222971
H           0.11248046531262   -2.12969217105839   -1.44206837909237
H          -0.38166448125556   -2.35045388256756    0.14025542158624
O           1.35886460671870   -1.77454905966798   -2.14405191644562
H           2.10719031431421   -2.23348460326410   -1.75821721487451
H           1.47630185235948   -0.78263487756007   -1.91301396578989
O          -2.09298023975048   -0.23211550960669   -0.64000747540582
H          -1.33875319935705   -1.46706961054840   -0.86593538941902
H          -1.96294381455124   -0.07536487946950    0.32253046456544
H          -1.72725913648022    0.56763119810896   -1.07192676130675
N           1.57760031724060    0.68284628330894   -1.36182270584975
H           0.60838997324702   -1.29546338581949    1.50694828988996
H           0.79696608426770    1.24710960353822   -1.68152981008743
H           1.48603398196990    0.60269625508939   -0.34714560062192
H           2.42698640892126    1.19745491867910   -1.55526361634679
