    26
        -50.47250314  Gyration_radius:  2.48727862649 Dipole_moment: 2.881
 S          -1.95993935094566    0.26652467563214    1.10959729461308
O          -2.54835843561633   -0.15810332325414   -0.15481857816476
O          -0.84151630759351    1.16857122477764    0.91186427965641
O          -1.64973678629949   -0.85865419598513    1.97066328327869
O          -3.07317276283970    1.10446364276376    1.86353132171992
H          -3.69623227821296    0.42155433035943    2.08708350277394
H          -0.39069400870212   -1.69353806110832    1.46375468319358
O           2.59005005620085    0.71501466005154   -0.60950720146154
H           3.51317769307075    0.96016854518985   -0.54435688952392
O           0.43274094792411   -2.16389093180730    1.16898053885746
H           0.36419279696777   -3.05583044712094    1.51263535048268
O           1.17364313900793   -1.51784530048749   -1.38100203653966
H           1.82118263295038   -0.80955811053336   -1.21322684030086
H           0.92177277694965   -1.85013686068644   -0.49861690932049
O           0.37592885147690    2.22415268978966   -1.25398509859871
H           1.26636570697346    1.85498756872244   -1.10912718915838
H          -0.08230731769010    2.11052123186063   -0.40082226246967
O           1.55057070603137    0.32042769068012    1.74621793322715
H           0.67249722834499    0.72506347399493    1.59648715617139
H           1.37738051315151   -0.63225481707395    1.76226865039213
H           2.26035990217466    0.60154884537081    0.32901905743392
N          -0.82713502201353    0.04718120270966   -2.10210891165808
H          -0.07363615249313   -0.67837002872515   -1.91633927750990
H          -1.21386032019994   -0.04111945222514   -3.03457304244781
H          -1.58225548123908   -0.06102139503171   -1.36451150973965
H          -0.38101874736656    1.00014313213437   -1.93910729490638
