    26
        -50.47071989  Gyration_radius:  2.44003412595 Dipole_moment: 2.608
 S           1.20430382544234    1.17032326242462   -0.63751300156678
O           1.72780722502098   -0.04271301613328   -1.25040148110556
O           1.06876414115806    1.02593292882848    0.80507230844109
O           0.00280847416820    1.63748907875383   -1.28674178972466
O           2.29740167047367    2.29518131498820   -0.83804539070284
H           2.23692461493915    2.45824311789127   -1.77296247815778
H          -1.52844298829208    1.43969617509207   -0.45507407024285
O           1.80142215890553   -2.57414074113569   -0.39431521614657
H           1.98531279733268   -1.67526353702832   -0.73487564544552
O          -2.26999903987056    1.20501716906643    0.13211343566707
H          -2.01188403558515    1.53612069191401    1.00935505837167
O          -1.98709248722186   -1.40722772654404    0.10297908778919
H          -1.59870714801584   -1.46792599496208   -0.79429715501807
H          -2.28031131409618   -0.46143585089454    0.16847541515358
O          -0.86797133733412    2.08342731034672    2.33228821370943
H          -0.09263092985325    1.75991080718081    1.83499083656581
H          -0.73833990076422    3.02496547149384    2.45423534139781
O          -0.57989056359377   -1.02040077733977   -2.16733051818971
H          -1.04535158500034   -0.25145694200603   -2.50652661164467
H           0.29318108347766   -0.67724026608155   -1.89687048802568
H           1.29572513483948   -3.00746430347888   -1.08672424993155
N           0.22224437117959   -1.42167567022548    1.42809916737549
H          -0.76858633205252   -1.46248567025952    0.96413639185695
H           0.19254955325320   -1.67366370091001    2.40959855550433
H           0.85916821786465   -2.04652455700694    0.87663405053899
H           0.58159437361505   -0.44668857400685    1.30370024354632
