    26
        -50.45790625  Gyration_radius:  2.4892911771 Dipole_moment: 3.316
 S          -2.07418974912532    0.40136237352150    0.23449434777016
O          -1.92862886782524   -0.96368982419426    0.69332337756644
O          -1.31249863251882    0.64324160584498   -0.98878490994797
O          -1.80082392852756    1.40491486720692    1.24343120837433
O          -3.60211595971905    0.57672173127490   -0.14760887841923
H          -3.70501737750813    1.52083293242063   -0.10013431619179
H          -0.33588751672516    1.34065699499080    1.94133111433382
O           0.56857442604762    1.21161666928713    2.32201192026865
H           0.48827786132245    1.39194463844919    3.26028707365761
O          -0.93156188286369   -1.82132180537518   -1.66220057831371
H          -1.52624754331396   -2.16319759365769   -0.98206665535758
O           2.64419324866885   -0.18589007985414   -1.60110296006405
H           2.45989263159183   -0.12762185917411   -2.54027678047888
H           2.17301201140788    0.61226668823304   -1.16267989034873
O           1.35155227448909   -2.09922195924426   -0.60653730184242
H           0.44626548643324   -2.06149175722412   -1.11535994774429
H           1.95279232186577   -1.34289490397977   -1.00493430041531
O           0.49188108280467   -1.38683664867152    1.63556095845635
H          -0.46288258421098   -1.33169826632964    1.40486201846934
H           1.09868318251254   -1.82839991446029    0.37736687412119
H           0.72970388594880   -0.48043384848006    1.92143275027244
N           1.26917898085241    1.71433454225373   -0.50756106056640
H           1.39485257351847    2.66867099923651   -0.81925881822898
H           0.30694187131790    1.44187378261746   -0.71803825690062
H          -1.05586837843726   -0.84268223387710   -1.58080986561555
H           1.35992061203744    1.70694287914902    0.50325286721793
