    26
        -50.45790513  Gyration_radius:  2.48928664045 Dipole_moment: 3.322
 S          -0.15265391760156   -1.64353664427935    1.34026222296000
O           0.44462136326432   -0.59501327424361    2.13936645486497
O           0.44262024980867   -1.71263784202856    0.00740216860477
O          -1.59971238024645   -1.59906208691268    1.27859836329792
O           0.21022548888955   -3.00649953035769    2.06246386838115
H          -0.44150253968177   -3.59658609812541    1.70024044919999
H          -2.25605552899707   -0.21737860023006    0.73522601985587
O           2.56682710481390   -0.32589777907432    0.49547151068587
H           2.40649491442969   -0.29974953091925    1.44761321891478
O          -2.56376882262807    0.66595338576232    0.41132113459943
H          -3.34271464104209    0.87954390303594    0.92797927672948
O           0.88961548363609    1.39811025254243   -2.61498095214912
H           0.09544245081843    0.78231544712747   -2.41303742763000
H           1.54238765613630    0.86037877779302   -3.06666981848495
O           1.68798896287167    1.91452049046693   -0.28714994350160
H           2.15014634115539    1.03057382817708    0.00398358339891
H           1.36323007699479    1.77455908184280   -1.27023132273946
O          -0.27224072328470    1.78173648508462    1.26567000064707
H           0.83871324839355    1.97010605062006    0.33081160284600
H          -1.13436791198818    1.56457092017233    0.85385439540220
H          -0.01258009342032    0.96234283983625    1.74431419450958
N          -1.00153063420269   -0.23318122879066   -1.93509512453489
H           1.85070713369468   -0.92994431222047    0.17567411833416
H          -1.72677236914827    0.23867058789000   -1.40465083352773
H          -1.45652304683003   -0.79737053007532   -2.64107078098327
H          -0.52859785580905   -0.86652457294002   -1.28736634962824
