    26
        -50.45790607  Gyration_radius:  2.4898432191 Dipole_moment: 3.317
 S           0.25253649051489    1.75947482356064    1.16977184995718
O          -0.05928511120969    1.74769960256955   -0.25778619378941
O           1.42883916741433    0.97007076982038    1.46634412215512
O          -0.90733581278932    1.43189751791836    1.97431394962714
O           0.62397400799050    3.25638115852307    1.53402419322694
H          -0.23612896256071    3.64620920123384    1.64504203363784
H          -1.40437640477539   -0.11276136517152    1.92113321224231
O          -1.62079304800415   -1.07533434578904    1.84133800477147
H          -1.88829733084779   -1.35911118476188    2.71723382753658
O           2.21934695675412    0.88074999236823   -1.11208812292305
H           2.64476185843153    0.96159086253692   -0.24874728467555
O           1.62048312058946   -1.57566845134452   -1.22018099721074
H           0.77096561811175   -1.64461400371386   -1.82475390398462
H           1.93705687621805   -0.58676260275891   -1.25963778351204
O          -0.45891290481152   -1.56629544769243   -2.63365328366290
H          -0.33394005812379   -0.98604596894490   -3.38667400634418
H          -1.11453423738888   -1.08997784491952   -2.00546571100189
O           0.93412566956989   -1.59980283544696    1.18834417626203
H           1.21590052322190   -0.68612503221651    1.42006904787142
H          -0.03009675943346   -1.61227301290361    1.36157175820108
H           1.31886113458166   -1.70389141072459   -0.22096524899277
N          -1.94561555186012   -0.24408076902570   -0.97855499710672
H          -2.84060565294971    0.11499554452847   -1.28474444725321
H          -1.35618098914069    0.55453816882789   -0.73529160297909
H          -2.10043473765310   -0.76427638144483   -0.12099600347401
H           1.32968614814476    1.28341300483049   -0.94964660855719
