    26
        -50.45667803  Gyration_radius:  2.50233368794 Dipole_moment: 6.344
 S          -1.83873271675951   -1.14049179868797   -0.20626066565322
O          -2.43034923429561   -0.39910551236665   -1.28079988260647
O          -2.23369543362601   -0.67409301381637    1.12269167639849
O          -0.37363439626883   -1.19234527539025   -0.29258059362990
O          -2.33807638437581   -2.63448291685159   -0.30258912031903
H          -2.12964826774289   -2.98354776145153    0.55851465756759
H           0.48819108611709   -0.27678942670491    0.78842084929105
O          -1.22001923587355    1.96184139223019   -1.43503318185759
H          -1.83391937742772    1.21403868862621   -1.58482645335147
O           1.02279828577344    0.24517956219152    1.43674590741393
H           1.39953659753400   -0.42925840891982    2.01225659760919
O           3.07498658091369    0.39048935250199   -0.37827759192832
H           2.41453496465057    0.42853288256386    0.34163371854699
H           3.66343769358917    1.13702143703389   -0.26319543379010
O           1.99792056347032   -2.30018346733174    0.71114277159507
H           2.66691703334875   -1.88057627910571    0.16193102073843
H           1.16201210684695   -2.17250167527132    0.24221999858814
O           0.86990752842513    0.46587106608289   -2.07073313895268
H           1.75628734801806    0.47514303193933   -1.67464976017505
H           0.40310145205421   -0.26384370637783   -1.63127080130592
H          -0.36279930097889    1.61346647484398   -1.77777424009205
N          -1.23362422981475    1.71453068720753    1.12888817384775
H          -1.19960770059820    1.93980861077194    0.05566579659178
H          -0.28148941633701    1.51244956951053    1.46663638522709
H          -1.67681219215208    2.45564495584737    1.66055413214567
H          -1.76722334438596    0.79320153088425    1.21068917807371
