    26
        -50.47250310  Gyration_radius:  2.487226423 Dipole_moment: 2.880
 S          -2.04838114175243    0.71270842549741   -0.66279056729348
O          -0.72166938455700    1.01083517951684   -1.16735738350118
O          -2.19537315318512    1.08535630073181    0.73891797035923
O          -2.46694715068597   -0.65394728771725   -0.90941927916255
O          -3.04647256983460    1.63321184415318   -1.47892573881824
H          -3.88625393902493    1.27985783830963   -1.20602348770782
H          -1.43855356918621   -1.72671627422828   -0.33418075244274
O           2.70363982948927   -0.37690992047542   -0.37137251735150
H           3.55374503698424   -0.61986406068350   -0.73854759078933
O          -0.75663382094928   -2.37966473858954   -0.02630853289526
H          -1.22809505158517   -3.19907207886701    0.13049862363585
O           1.08501176233520   -1.27895613049715    1.66647048741169
H           1.80024326991281   -1.05537630632151    1.04388813932723
H           0.41791988988855   -1.75079233010142    1.13279895492880
O           1.50912850927908    2.09148747958084   -0.09825298968851
H           2.10827506868604    1.33342014356104   -0.22687219005373
H           0.74291337215505    1.90284406599065   -0.67107118265084
O           0.75813662847120   -1.06730687818067   -1.96006104624688
H           0.30531374911944   -1.77151028172892   -1.47333361134741
H           0.18252575837758   -0.28427158619834   -1.84714441741392
H           2.01526278241023   -0.65461310178665   -1.04324616757057
N           0.12132217699961    1.16502362188953    1.93197299294449
H           0.74054302572542    1.68152054776080    1.23663071850774
H           0.47538531036489    0.16410098776763    1.97107282006153
H           0.12397874821411    1.60179688647619    2.84633908216384
H          -0.85496513766342    1.15683763412958    1.51631766558529
