    26
        -50.45667819  Gyration_radius:  2.50241287485 Dipole_moment: 6.345
 S          -1.74043071518933   -1.25683723375002   -0.34051133425522
O          -2.13312224452876   -0.35620061197033   -1.42419367854592
O          -2.42540627301493   -1.01201567240178    0.89442239958864
O          -0.27954234626640   -1.23759064939219   -0.19186455358908
O          -2.11310795386409   -2.70900116499822   -0.83346805661163
H          -1.85349834482700   -2.69487136472194   -1.74954951200632
H           0.53422834209975    0.07092970866222   -0.80406478347570
O          -1.42597367868346    1.19773572915396    1.98173915069808
H          -1.97811411251578    0.40818563514672    1.80771364458616
O           1.04221124101425    0.83197248332236   -1.18016089971768
H           1.49316614235260    0.44771150351845   -1.93975704359256
O           2.20772219607101   -1.72788678885088   -1.38893635102343
H           2.82112853666903   -1.50036313478154   -0.68377934991756
H           1.34969326357843   -1.84146738152113   -0.95778100451960
O           3.01756180903503    0.42847390802659    0.68081471024361
H           3.54307549156449    1.20219229459498    0.88585560247933
H           2.37899815722006    0.68756011274744   -0.01269368409690
O           0.76303404013956   -0.28258807208737    2.14479987092520
H           1.65701632215987   -0.06631121630473    1.83400892391399
H          -0.55307704073053    0.80565744730425    2.22267753684821
H           0.37380852420623   -0.82571239736700    1.43976216942840
N          -1.33965364556964    1.92414673338412   -0.48813310940035
H          -0.36383763559711    1.92729893742632   -0.81865154334331
H          -1.79020395697442    1.06597773881375   -0.93623619740270
H          -1.35794814465926    1.73472819296518    0.59227520776045
H          -1.82772795369536    2.77827525314546   -0.73428812499062
