    26
        -50.47071368  Gyration_radius:  2.41575745816 Dipole_moment: 4.126
 S          -1.86801244062622   -0.05988015122679   -0.78346111665860
O          -0.93576111764263    0.25983033669989   -1.83753384052613
O          -1.95423338758906    0.94576526608484    0.26220760400531
O          -1.62640567905486   -1.39271303442443   -0.22670332638467
O          -3.30095381689929   -0.11293244021486   -1.45517656042300
H          -3.87984071192451   -0.08185527048099   -0.70128955651808
H          -0.35280865590163   -2.00849736443346   -1.06956037976433
O           1.33660171277752   -0.06435840283715    2.14376391998342
H           1.73727444069809   -0.24039191550079    2.99569150600386
O           0.43965476131709   -2.09962664612401   -1.64811850665182
H           0.21553003921214   -1.54552255853229   -2.40426361742647
O           1.29957069677964    1.66763502005667   -1.49774145959023
H           0.46298127903916    1.28094997008543   -1.82688441395452
H           1.02604625108573    2.15073796244578   -0.68208101377563
O           0.30280371307672    2.29914857187027    0.86667159442163
H           0.71798349457441    1.65635833517876    1.45698687113249
H          -0.58021550761678    1.93897683118088    0.65644076394185
O          -1.18678051524762   -0.67263286779682    2.24674372885680
H           0.37867514872046   -0.34870490069799    2.22372715471382
H          -1.59449586322571    0.16756108123106    1.98780699340222
H          -1.33595360173563   -1.21676735334244    1.44700514347163
N           2.16628413975166   -0.51905009550374   -0.42000847355752
H           1.91644359586158    0.42767881919123   -0.90221458526948
H           1.53795269098357   -1.24880465295024   -0.87386496482162
H           3.14487061096843   -0.75174811567966   -0.54587990277222
H           1.93278872261761   -0.43115643428073    0.58773643816050
