    26
        -50.44038420  Gyration_radius:  2.74189833431 Dipole_moment: 0.963
 S          -0.65175341429270   -2.00856316408336   -1.91106139282744
O          -1.33760315152626   -0.76063089905770   -1.70269354458537
O          -0.91832095314378   -3.04673362211805   -0.98384729371342
O           0.85037420819251   -1.74699604861260   -2.07342278180545
O          -1.01575886781475   -2.50546348420982   -3.35655098938354
H          -0.95255339810117   -1.73904532855240   -3.92265659529303
H           1.27577015061468   -1.51308935761599   -1.15267735858639
O           1.84956294555768   -1.13488764237359    0.13404842975559
H           2.75918412485801   -1.43936956476478    0.16141390221933
O          -1.38702879378014    1.55300027117886    1.75113863274703
H          -2.20520791638890    1.64698730237970    2.23957491138600
O          -0.56917145104717    1.78116463848982   -0.93410677982045
H          -0.97808012178662    1.85691291981647   -0.05772596260424
H          -0.88800860608753    0.94085712826649   -1.29589464379543
O           1.13034905549477    2.43810584431990    2.30489986700116
H           1.09773329336963    3.39436937179869    2.24729333231235
H           0.21050264932346    2.12507131806014    2.19990020174002
O           1.92039778843112    1.38665114667945   -0.06464167448310
H           1.89883010935696   -0.10404920594452    0.07087758340770
H           1.07302708103572    1.59882949390754   -0.52355770675003
H           1.80717221941824    1.75213873796816    0.83752434658123
N          -0.99171333012552   -1.00759983355877    1.22589542755013
H          -1.24255298106336    0.56734744719988    1.61884449763553
H          -1.31619096753908   -1.06203021538556    0.26544961057099
H           0.00503370679647   -1.19653256466581    1.19879758459532
H          -1.42399339977573   -1.77644466913736    1.72317840615546
