    26
        -50.46827137  Gyration_radius:  2.47368512162 Dipole_moment: 4.496
 S          -1.24369470698608    1.15763480094089   -0.26562301828595
O          -0.57696403330779    1.03218875640057    1.04943855199737
O          -2.67057091282530    0.99196049466768   -0.15417639000030
O          -0.64025296310125    0.19276633693839   -1.19013723161536
O          -0.96539512125031    2.58330451256158   -0.79616380592950
H           0.01181161096541    2.67262191742515   -0.98210734644599
H          -2.01248492878215   -1.44070244275174   -1.33821554802759
O           1.12781724786042   -2.79577969271667    0.64914523616366
H           0.99218334574083   -3.52732653205030    0.04445700441604
O          -2.67253346564047   -1.55410250313753   -0.64315401053306
H          -2.96242031351408   -0.62516100061598   -0.48172542815521
O           2.06129401047004    1.35002588469666    0.97695111805137
H           2.24012415069634    0.52466067583008    0.49913741772168
H           1.10611177330778    1.30271804427113    1.18896075540833
O           1.59869473983870    2.87629786873732   -1.09426538988533
H           1.78923118996128    3.79591098537006   -0.89985824284012
H           1.90077393841149    2.35296934707001   -0.30024393590415
O           1.75749718297146   -0.68069173851966   -0.86575553264397
H           1.49761848066049   -2.06042712364966    0.11562388951612
H           2.21733219688704   -0.51258335507185   -1.68961432108746
H           0.83375439173506   -0.32291907908576   -0.99764059499588
N          -1.07909311333974   -1.48012855749032    1.45980336185944
H          -0.21447363721272   -2.04074511615654    1.26500862732526
H          -1.78446353203436   -1.64554542767032    0.67729652980583
H          -1.47059283137038   -1.70879285468451    2.36743494191750
H          -0.84130470010383   -0.43815422135218    1.40542335217506
