    26
        -50.46322694  Gyration_radius:  2.57512628995 Dipole_moment: 5.239
 S          -1.96885535692815   -0.34732732475148    1.17026201486671
O          -0.89330819329839   -1.17882428912871    0.61130133612070
O          -2.70244196355515    0.35320404568184    0.15449114580452
O          -1.43443998046880    0.49967588378085    2.23036215862463
O          -2.96371150465597   -1.34141674900462    1.89742078476958
H          -2.57022968814038   -1.38282107198051    2.76232468744728
H          -0.32628669719384    1.57386533349489    1.84487905407634
O           0.36990903671211    2.20764596156537    1.52147019189499
H           0.33310239637877    2.95882109249677    2.11515399042345
O           0.54603015311363    0.69293514821667   -2.34488875828569
H           0.86182123414024    1.19249969406826   -3.09828198916185
O           0.32395087528860   -2.10453148107834   -1.67842054771565
H          -0.27632981948302   -1.97145662168272   -0.92650533269334
H           0.29225806616923   -1.27691250246632   -2.17612298311077
O           2.67773799537312   -2.17603774405439   -0.39493414994603
H           1.88441558804295   -2.27224828754870   -0.97614079362885
H           2.75082484362841   -2.99922661017389    0.08872409539787
O          -1.05989511456598    2.13888290024190   -0.90249526257903
H          -0.16091728085780    1.25085642761589   -1.91150842802056
H          -1.78025469709567    1.54760867750399   -0.59766207714419
H          -0.55505737671433    2.36251810517431   -0.10474459595754
N           1.36115770260422    0.07143115617557    0.15975749116057
H           2.11846246423551   -0.63828768261456    0.19372244072917
H           1.24733922416951    0.37767530518552   -0.82953014836127
H           0.45375431846634   -0.42182904637026    0.41670250809755
H           1.47096378467485    0.88329967967644    0.77466316719022
