    26
        -50.46827109  Gyration_radius:  2.47285712907 Dipole_moment: 4.479
 S          -1.21703905947262    0.26650984017340   -1.18785615137363
O           0.20759525214526    0.55672685597423   -1.46350637686479
O          -2.04241156791186    1.43032577842055   -1.38646721884232
O          -1.32991272100909   -0.27397913481834    0.17087140143332
O          -1.67281380578449   -0.82305446886006   -2.18591419992538
H          -1.18430448764331   -1.66982297869952   -1.98172561310717
H          -2.02893507108747    1.30214091378583    1.37822793581380
O           1.71152953779123    0.72243345620311    2.46168770577502
H           1.30892528542438    0.80050917717203    3.32831901472905
O          -1.95078285976600    2.21846787567316    1.08296708695101
H          -2.19495620525096    2.14531354145732    0.13095024036629
O          -0.26088886695126   -2.96557543703855   -1.77900753283927
H           0.61143917275415   -2.53027151255494   -1.56689349027396
H          -0.15285013458455   -3.38402512784304   -2.63510806851910
O           1.82999912391049   -1.52589934820281   -1.15430666388291
H           1.36637034496269   -0.69889048124540   -1.40080896447578
H           1.74264514437278   -1.56884712826232   -0.18889882057620
O           0.63805415164743   -1.45503163895598    1.33343032373747
H          -0.12843744064859   -1.01283390242261    0.86930794664662
H           1.43210688247534   -0.14701498058513    2.10387848463152
H           0.30727675853500   -2.30824268703988    1.61826549557115
N           0.62209234266895    2.20630338067943    0.49551228734219
H           1.06676107671711    3.08389316879080    0.24769576005854
H           0.55470488388888    1.56506989497962   -0.35864487153376
H           1.14923490033056    1.71201213731954    1.25557838493934
H          -0.38540262755503    2.35378277584215    0.81244589416473
