    26
        -50.46587159  Gyration_radius:  2.49448124197 Dipole_moment: 3.138
 S          -1.72980988935544   -0.22348166917574   -0.94806064368376
O          -0.59391305231118   -1.14868573610503   -1.13057517223998
O          -1.81154862721198    0.73387158402951   -2.00861488386072
O          -1.61235562604522    0.43814632532869    0.36499677459186
O          -3.02004538978800   -1.09247690968026   -0.89129163029702
H          -2.79736451705089   -1.79057295087126   -0.23618420488876
H          -0.70927403760723    1.71127806926611   -0.02290658766091
O          -0.06595746273113    2.39269263469391   -0.34561087582397
H          -0.59318921006053    2.97476470672334   -0.89738484683775
O           1.62048180017217    0.98649944717287    1.65837981151335
H           1.11332806283946    1.66452907251231    1.19893835366309
O          -1.67554883470233   -2.70521094237150    0.73481859403220
H          -1.05374168794316   -2.46005234665487    0.02973880048005
H          -1.31763019622519   -2.28354910577615    1.52968980450477
O           3.23598516291734   -0.09647476240586   -0.12533799346041
H           3.30607986029004   -1.02319225421323    0.11047904389276
H           2.76668567029479    0.34253778395686    0.62964825906584
O          -0.44700701301758   -0.70869608585261    2.36078045797942
H          -0.92535296098633   -0.27791457447606    1.60556802037393
H           0.97503399535599    0.32068045624298    1.96417227955125
H          -0.87545377204657   -0.39507906364503    3.15937653568948
N           1.26266937793266    0.53485943935954   -1.77491228080165
H           1.42039168775867    0.68096220201253   -2.76575948818378
H           0.53917021524622   -0.23588127683629   -1.61917598858860
H           2.14599192704107    0.27371184256334   -1.25318582235073
H           0.84237450722863    1.38673412434029   -1.32758630666740
