    26
        -50.46587159  Gyration_radius:  2.49439878942 Dipole_moment: 3.135
 S          -0.95767821690463   -0.68516724900978   -1.59860575410781
O          -0.15486532274939   -0.45628639414569   -2.76101048635714
O          -1.32435719003455    0.57803497016890   -0.92800436787990
O          -0.26967767442655   -1.56544128456701   -0.63554815920319
O          -2.28646735522874   -1.40037554573690   -1.98000158332926
H          -2.80664241946344   -1.37690501343783   -1.14628226080989
H           1.25289233209300   -1.08415620306365   -0.82805442748054
O           1.62485913017649   -0.05456847823283    1.92541720624031
H           2.01341158103353   -0.39697067306233    1.11313345648689
O           2.13184651838483   -0.64116059505701   -0.94413477179977
H           2.42210324884788   -0.91403117378246   -1.81736366795295
O           1.26760704757137    2.53549547754404    1.56799096975063
H           1.49131218367062    1.60679107511462    1.83336758187991
H           0.46278283180420    2.75814044549347    2.03911128825659
O          -3.13572401175693   -0.78678111583349    0.46012158776518
H          -2.67231568368743    0.00230368431310    0.13368695305238
H          -2.57971212315707   -1.11108646989275    1.18360134955464
O          -0.76063329483643   -1.45048912227701    1.89468735656126
H           0.75870548974025   -0.49481482491553    2.02246781661369
H          -0.59357623155859   -1.52108596075758    0.91901698612914
H          -0.63226502838781   -2.33195454792810    2.24996778611457
N           0.96371128119129    1.78662332479911   -0.95398596353382
H           1.13324085703793    2.42292534112591   -1.72494205911155
H           1.11326191405348    2.23878668707278   -0.00857827897907
H          -0.03469248278152    1.40795576771850   -0.99216934696527
H           1.57287262943713    0.93421787841434   -1.02388918085632
