    26
        -50.46161841  Gyration_radius:  2.7358841497 Dipole_moment: 3.832
 S          -1.89772369446369   -1.67132114103031   -0.02015359336422
O          -1.32752046141620   -1.25140073058231    1.24039985704088
O          -0.87594804749153   -2.02582923238546   -1.00284383964670
O          -2.84418103453748   -0.70830959459157   -0.56387588302434
O          -2.71719271232532   -2.99697891805845    0.26653873709392
H          -3.05632873643259   -3.21215471953653   -0.59648740499229
H          -2.25392575332084    0.71484042064630   -0.95001843213715
O          -1.79415912182677    1.57619509294689   -1.15040092176787
H          -2.35304472220287    2.03300913202413   -1.78025041254229
O           0.86062428004219    0.23525368102042    1.78907386912961
H           0.34159585727737   -0.58293520695064    1.86427435565269
O           3.11240559952972    0.35057689805776   -1.69250750396573
H           3.37640140799704    0.43410068966270   -0.75173461896718
H           3.57183831502870   -0.41854202526941   -2.03272888109637
O           3.49357559232147    0.47130281703195    0.98358117523996
H           2.62348665260310    0.31539595558150    1.38988657440854
H           3.86952270141746    1.22881646428320    1.43441913325560
O          -1.48608599358036    1.46514991147854    1.66638178153192
H           0.18141327509734    0.92785304066459    1.95120523168931
H          -1.66691164549516    1.80055479395881    0.77823179611660
H          -1.74021245051804    0.52700035062819    1.63821956250160
N           0.52747309211548    0.16725436841055   -0.91181662065084
H          -0.15775677713677    0.88912225485808   -1.18610501617833
H           0.72093356146339    0.25600949419317    0.11377450555719
H           0.06197736176102   -0.77483901921401   -1.05232985325294
H           1.42974346408549    0.24987522218885   -1.42473358764511
