    26
        -50.46282842  Gyration_radius:  2.50906786325 Dipole_moment: 5.050
 S           0.53611217621232    0.05920064232362    2.05023834427944
O          -0.12558480047769   -0.88897964449590    1.17002635230040
O          -0.17768681484146    1.33571112288755    2.06998094996884
O           1.94590429533176    0.22301603609756    1.78263024885803
O           0.43027421495475   -0.54181938203701    3.51178309962651
H           1.17415371243815   -0.11795813469403    3.92583146386616
H           2.43662036687668   -0.15816352038394    0.21516143658039
O          -3.12958042533310    0.63032448540261   -0.71013627722088
H          -3.55795018908978    0.32248198271144    0.09051689917030
O           0.67877000091931    0.71802305886507   -2.03348770692226
H           1.09498018816681    1.05886293816573   -2.82585964113725
O           2.50606932712191   -0.47637407740458   -0.70958327640144
H           1.41983822365531    0.25405230716240   -1.51216982576201
H           2.24013610092364   -1.41600042155534   -0.65487382607855
O           1.19693128180598   -2.79723260924495   -0.19095887478471
H           0.75690733297999   -2.23040728890644    0.47065265566937
H           0.51185693983974   -3.03541609451658   -0.82095005226764
O          -1.26474127856553   -1.13697061717086   -1.25767439901861
H          -2.57592919894304   -0.12998443905407   -1.03116580590925
H          -0.61762797212138   -0.62575012206330   -1.76638181668855
H          -0.91916943169954   -1.13350059029048   -0.34475037537879
N          -0.91079364338702    2.03938217452482   -0.29539896622960
H          -0.24526512414978    1.61877820267224   -0.98478615684415
H          -1.86266450149676    1.60571309580809   -0.45341835892764
H          -0.59390684997546    1.77493090390337    0.69934127138963
H          -0.94765393116286    3.04807996127645   -0.39456735212939
