    26
        -50.46206069  Gyration_radius:  2.51566372148 Dipole_moment: 6.940
 S           1.96385388307557   -1.25353902647234    0.26420403734508
O           2.76788894592698   -1.22029112907822   -0.91283973178357
O           0.69101890562872   -1.96348959358475    0.10171047212273
O           1.71728634673387    0.06710921511945    0.85012019887890
O           2.75756937902372   -2.05092277737308    1.38621240430026
H           2.28566157910338   -1.83057771041093    2.18395348719435
H           1.76807397584414    0.75046256253779   -0.71984608865099
O           1.59634435828409    1.19530123701141   -1.57369920541023
H           2.30792422744236    0.88581871319186   -2.14011990533370
O          -2.65820180575586    0.35205775009856   -1.46706565717425
H          -2.81970383519487    0.97071443974625   -2.18049344764602
O          -1.08313994354747   -1.40945786027030    1.86052663220610
H          -1.72452870537799   -2.11240790382500    1.73702977285955
H          -0.35234274507787   -1.61231659281076    1.20946064382406
O           0.37113962188532    2.35628877315097    0.77045914458715
H           0.94482283442861    1.60448262120485    1.02011628645752
H           0.61600113237696    2.53369192324876   -0.14527272493515
O          -0.34246143071616   -0.68593324695752   -2.01746413096819
H           0.30294458618075    0.04528043158718   -2.03555389081199
H          -0.00267394119233   -1.30014452315679   -1.34038255948469
H          -1.82285816843395   -0.13810992138838   -1.71958438872986
N          -1.87346058829410    0.97542603789077    0.98239284064862
H          -1.01015662196573    1.59140552857873    0.90220327456105
H          -1.57071238688256    0.04375114477049    1.38583549583665
H          -2.56672532669404    1.41021340243673    1.58128923925727
H          -2.26356428681592    0.79518651478351    0.01680780085232
