    26
        -50.46116094  Gyration_radius:  2.45252494535 Dipole_moment: 8.887
 S           1.16059153112376   -1.60189712740430   -0.78091466831795
O           0.51595803502643   -1.94009008683637    0.51321732913666
O           2.58709380122876   -1.58742781150472   -0.69337260285176
O           0.60116859754504   -0.33336886773417   -1.25892773388504
O           0.71698674646912   -2.70291917315394   -1.79750104720682
H          -0.25250424431545   -2.65048945130771   -1.78262716430513
H           1.91876528594424    0.69628127693874   -1.04907747133496
O          -2.65468871599892    0.38071979154471    0.20560125759311
H          -3.53872088127574    0.74872813596098    0.19988139580757
O           2.64377383649997    1.15783440802880   -0.57719864231717
H           3.24380785496368    0.43077095377382   -0.37402938205874
O           1.01194958536264    2.21110786167272    1.15642194001621
H           1.48328476076768    2.84291680767123    1.70078310343565
H           1.68563983573761    1.84281017788958    0.51465632556928
O          -1.77306206640683   -2.21576113455361   -0.82231459660947
H          -1.08571962826283   -2.26471588859959   -0.13767712734149
H          -2.19385107525450   -1.35457792100737   -0.70265239811174
O          -0.89697793811736    1.84535500368204   -1.02615074772018
H          -0.33218834635540    2.30066356009655   -0.38970257426285
H          -0.37072541081586    1.07395777543636   -1.31459718721603
H          -2.08664194423851    0.98024590582170   -0.35686273799500
N          -0.48329587972503    0.04097660009447    1.78079969593213
H           0.09373446757310    0.89664677091197    1.62104399213735
H          -0.57019996219042   -0.16787160513455    2.76949896506050
H          -1.41777962450109    0.16531278486970    1.33718836355920
H          -0.00639861078159   -0.79520872715196    1.26451370329737
