    26
        -50.46764443  Gyration_radius:  2.52667221593 Dipole_moment: 3.913
 S          -1.81785594434991    1.26811743689187    0.68228572616562
O          -1.88811738028150   -0.15571802832603    0.34829852209013
O          -1.14415957234878    2.02493513236250   -0.34097813716260
O          -1.28933397950133    1.46806328243700    2.02209746742789
O          -3.31512464257593    1.78071690244660    0.74339353230900
H          -3.55388108288398    1.49631578763939    1.61865934285290
H           0.23955620111216    1.07823920650804    2.14412341494554
O           1.19327369836138    0.78932139950175    2.15513784033903
H           1.57136988482175    1.16780472704598    2.95043695411247
O           1.74526566468495   -2.51963528833051   -0.55351015539757
H           2.56365305174744   -2.70542109451175   -0.09170175055428
O          -1.44813684740655   -0.76018045176311   -2.13596436600214
H          -1.69474508982882   -1.68780528171536   -2.13235824059196
H          -1.68555511494590   -0.42391336655399   -1.23537103379539
O           1.44781365266652    1.67625337428177   -0.41302221018858
H           0.50969731157905    1.97516829556733   -0.44404218860181
H           1.56941037475395    1.36970701572928    0.50401369346016
O           0.13732971214876   -1.62633838592623    1.30739030224233
H           1.08232546250533   -2.28568437067507    0.15309002570906
H           0.63246301787366   -0.91586047971656    1.74368110459726
H          -0.67588176927913   -1.19240276352113    0.98113415797818
N           1.17979722979970   -0.36631421626204   -2.02098846915107
H           1.63859174137139   -0.24031363854157   -2.91600071196438
H           0.13535056805464   -0.47321377235291   -2.15227029042313
H           1.52182753146346   -1.22891001448089   -1.53027955377287
H           1.34506635062650    0.48706860272977   -1.38725497675221
