    26
        -50.46116092  Gyration_radius:  2.45243862257 Dipole_moment: 8.889
 S          -1.26509260377453   -0.80262166073936   -1.50908545877011
O          -1.28546532097989   -0.24634530421698   -2.82551670376748
O          -2.00469013475338    0.03197933651952   -0.52860645856140
O           0.09208673390060   -1.02224850327265   -0.99859677255113
O          -1.97194127681771   -2.19630093960319   -1.52655390485631
H          -1.92408740325263   -2.48830788122080   -0.60156060193228
H           0.99092084775036   -0.07936540721220   -2.06754419079866
O           1.27181589752469    0.72439859475893   -2.55379276093977
H           0.51652285162994    0.88142412058443   -3.13238250091559
O           0.30292291268826   -0.58556277432446    2.60644958065644
H           0.65501292648898   -0.77268496941529    3.47708737485159
O          -1.82238246800325   -2.00476736649293    1.17969347647082
H          -2.09563768399183   -1.18103003773512    0.74343623637002
H          -1.04477912037273   -1.77231428746394    1.70353778160441
O           1.71149310194692    2.04854806468925   -0.35561401069080
H           1.56951358811513    1.58833607069891   -1.23265513486181
H           2.13157170034339    2.88477470228060   -0.56056864010091
O           2.08383217201485   -0.64509577885112    0.71510571601722
H           1.44640015488338   -0.96434182843455    0.04662796686305
H           2.30449314190111    0.25076158140285    0.43199801495811
H           1.05161409830511   -0.71170510368070    1.95670006889741
N          -0.53899473326655    1.43766513838803    1.02216960465887
H           0.31999625518539    1.75097942762982    0.51754742174053
H          -1.16399052141774    0.87917646041605    0.32132838389813
H          -0.27361530186840    0.76905981114350    1.77580444391710
H          -1.05751982418214    2.22558854413715    1.39499107784394
