    26
        -50.46982061  Gyration_radius:  2.50075938476 Dipole_moment: 2.032
 S           1.15061432051505   -0.17607812446017   -1.77484465393884
O           1.68202205240072   -0.65498293711078   -0.49436061640371
O           1.16893948702455    1.26369859202835   -1.86289534739551
O          -0.13527923227006   -0.78141938275113   -2.06412193625724
O           2.15057993217398   -0.69455776016900   -2.88800615267841
H           2.69488662757123    0.07634374877348   -3.00380134577428
H          -1.38198213807238   -0.27135782791741   -1.20085214054229
O           0.10488463061911    2.48738675556744    2.09911040659377
H          -0.65172118112053    2.78032960730394    2.60919052790479
O          -2.12377708742202    0.05349757416813   -0.62693743689496
H          -2.91345925019264    0.01476305889236   -1.16907296800597
O           0.18118852802430   -2.85879514801600   -0.27734924449950
H           0.87106178104016   -2.16958611681550   -0.32183776636551
H          -0.26265496274125   -2.78619814389984   -1.12802287235295
O          -1.36096126988592   -1.53860893741914    1.46873313019063
H          -1.82792955204744   -0.97618708386932    0.82506989173984
H          -0.88772859163359   -2.20651170996904    0.92001412821051
O          -0.71761813857957    2.43089356365156   -0.37231249477390
H          -1.35989596040026    1.70304669606793   -0.40548704032141
H          -0.15674278559141    2.58871929625013    1.14094842782141
H           0.01221216660275    2.14922606281045   -0.95908831633544
N           0.76355484507436   -0.08097987053917    1.91864987658928
H           0.53669858241773    0.93892083497291    2.06684550522309
H           1.38398431891747   -0.42282970401407    2.64434835312551
H          -0.13802530803273   -0.66357208176640    1.87834640284210
H           1.21714819561323   -0.20516097175307    0.97773369230001
