    26
        -50.45679353  Gyration_radius:  2.68051350291 Dipole_moment: 3.228
 S          -1.95791581328074    0.04954558102515    1.68990603539682
O          -1.06298506254635   -1.11636162942740    1.58086634886887
O          -2.69454735680679    0.27597363773536    0.48293101872042
O          -1.21790033467670    1.21797611054365    2.15845461015814
O          -2.99546186595899   -0.30737010117417    2.83716298397616
H          -2.47962949519974   -0.38382606837298    3.63614884851263
H          -0.77582025907032    1.77459896421504    0.68048739072187
O          -0.57061390730579    1.94081788741232   -0.27248005510673
H          -1.38496082416885    2.30024184004853   -0.63240998571857
O           2.22755510900249   -0.96225364460517   -1.50554438196830
H           2.79333469741594   -1.57168709286699   -1.02912396328732
O           0.21588555202781   -1.30911311206533   -3.54576947877359
H           1.08355470021860   -1.20388003695059   -3.13402715764399
H           0.36031039979240   -1.33902469679933   -4.49194856606308
O           1.26135165944373    0.08489428313497    2.18579684963685
H           0.76775398251082    0.83744671630771    2.53494263414610
H           0.55640371748755   -0.56037696329387    1.99192506650076
O           2.17978030100436    1.21012541023033   -0.07961112105782
H           1.40602956917261    1.74992735187338   -0.28085151076361
H           1.98853082548426    0.80933702397242    0.79814290994611
H           2.34509403608153   -0.07649441113902   -1.05790235268627
N          -0.41336910762330   -0.70062010052084   -0.91863425085403
H           0.58802723503371   -0.93869012378006   -1.10603393962423
H          -0.73595967203516   -1.07810153211407    0.01030623705177
H          -0.50906315824408    0.33988523668721   -0.83622326454378
H          -0.97538495776319   -1.04297052989487   -1.69651090544995
