    26
        -50.45332298  Gyration_radius:  2.39095484523 Dipole_moment: 10.214
 S           0.21941301087729    1.97675970442454   -0.87193972251453
O           0.06431285370724    1.10391672875632    0.31191204804115
O           0.13349456023292    3.36092344110158   -0.54879258891562
O          -1.00880981943658    1.57962294261979   -1.81793846001229
O           1.39153064197374    1.55708216018014   -1.62315922244359
H           1.93087374867233    0.28646328780068   -0.98807098023582
H          -1.77439664871659    1.50726573215310   -1.21486568098372
O          -1.49962938368445   -1.86877886337576   -0.11450408817433
H          -1.87831958317604   -2.71166655276278   -0.36787729257409
O           2.30137251172748   -0.58092725063487   -0.62116504838258
H           3.22229760274157   -0.39247046439230   -0.43397044206272
O           0.52640163575412    0.78933353571514    2.82691983747088
H          -0.24673338802635    1.09760772955510    3.30327292808195
H           0.44953451088282    1.16993579621164    1.91976640601187
O          -2.51832370076937    0.82777632641117    0.25048111341462
H          -2.59331139860476   -0.12697884682749    0.13567227504252
H          -1.58171667011015    0.96950248272849    0.50034040605246
O          -0.15495116868315   -0.97017348699929   -2.16152670685162
H          -0.37896948312591   -0.02476566503576   -2.22934519110784
H           0.79403400176836   -0.99864726420325   -1.99773522046509
H          -1.04379377942217   -1.51483798900021   -0.93086738880562
N           0.73081707729691   -1.43241706633402    1.35298629199398
H           1.12135128202378   -2.26624451439979    1.77891968948733
H          -0.19161666076061   -1.62853565454058    0.89880727347855
H           0.61544909643891   -0.65396578127018    2.05285272499340
H           1.36968914042138   -1.05578049787843    0.58982701946605
