    26
        -50.46798754  Gyration_radius:  2.53181926364 Dipole_moment: 3.754
 S           0.46930682573462    2.04037829484121    0.95480122617016
O          -0.52958894947871    1.65161767365171   -0.02987186856524
O           1.80244880939174    1.59996895045799    0.59617130607974
O           0.09857908707437    1.65937055674058    2.30519817172580
O           0.49988887923528    3.62481660025690    0.91867212369503
H           1.23724903347184    3.79817966987684    1.49320268985673
H          -0.15896898417106    0.10491091075625    2.44051379879783
O          -0.27910334780713   -0.88436110668261    2.44734612840471
H          -0.25505199513921   -1.14339805170471    3.36994611953312
O          -1.68553628672945   -2.27098558424828   -1.39700550870612
H          -1.90047741732778   -3.10142275497562   -0.97060256515134
O           1.74930010427345   -1.01034852801403    0.61951403754347
H           1.06070081859557   -1.14960362606937    1.29481449121475
H           1.91099429003017   -0.03680147759350    0.62454185102755
O           0.20080132755421    1.19610977244719   -2.47421311129978
H           0.01076012234945    1.47797214922763   -1.54412548230768
H          -0.61867937175507    1.33483533744611   -2.95364201267490
O          -2.12645985402719   -0.46194578173349    0.43693529931889
H          -1.68659457652954    0.38162073522388    0.21850595943265
H          -1.95180048747606   -1.55764587031244   -0.75182997004484
H          -1.66033996967755   -0.77030238965995    1.22963196138197
N           0.77136454046217   -1.31291596616546   -1.78320373185639
H          -0.16128882259340   -1.79024299643144   -1.70006443919876
H           1.39266384434150   -1.81718877701003   -2.40537548671842
H           0.60507316280157   -0.33248183755826   -2.13838504224923
H           1.20475922740423   -1.23013591276398   -0.80147595541403
