    26
        -50.46592467  Gyration_radius:  2.5051372707 Dipole_moment: 2.940
 S          -1.29467081413289    1.04970265526032   -1.00249831982657
O          -0.27283625344950    1.06128415325849   -2.03016188887685
O          -0.99258191214251    1.88441646063139    0.14072680928048
O          -1.65751940518525   -0.30625098192434   -0.60151463635651
O          -2.59220864948910    1.67204285618060   -1.66221772944551
H          -2.65437779257492    1.18588991942544   -2.47767343521811
H          -0.37712802671037   -1.43633476451071   -0.71071518403835
O           2.24754221647346    0.78941223483708    2.24187791891036
H           2.82285260743066    0.05583850585875    2.46500640818131
O           0.45286056210222   -1.95127504570105   -0.67899801539544
H           0.69844534570008   -2.03200361579156   -1.61598225010411
O           0.80989020750422   -1.09457486960715   -3.25259723285097
H           1.67402855175264   -0.80356719769294   -3.54878571809612
H           0.37283280491175   -0.29695832439376   -2.89619891636436
O          -1.32351424303464   -1.62663160840569    1.69805239424799
H          -0.64081599945641   -2.21888867215986    1.36423183794309
H          -1.69550224813252   -1.21357133764710    0.89269690803861
O           1.72055285840327    0.38988824374773   -0.29732195446418
H           1.11646931852160    0.88211466733408   -0.87162400065087
H           2.15859821954765    0.77262343333602    1.25563331411217
H           1.41999093830124   -0.54296173668955   -0.36003792215104
N          -0.40170895725307    0.75745582171249    2.41860592975357
H          -0.83885360992914    1.20829930064031    3.21469876093902
H           0.64937794302413    0.77696164840346    2.49629769068468
H          -0.74433266569652   -0.23431261047822    2.29668580839601
H          -0.65739098645758    1.27140087436599    1.52181340333812
