    26
        -50.46929823  Gyration_radius:  2.49742356444 Dipole_moment: 5.066
 S           1.12092824980064    1.78295423419058   -0.06362605055304
O           0.71856370630325    1.58383370085458   -1.43102140867891
O           1.75955567685200    0.59331554861621    0.51322144340220
O           0.07045033075283    2.27144162266688    0.81166215215683
O           2.23732214807335    2.90410653326926   -0.07218127295184
H           2.29037646562593    3.12129237796675    0.85198613582560
H          -1.38324109117032    1.63670510821245    0.77600150805974
O           0.16777634157735   -2.28357302923742   -1.33141679571187
H           1.00108433848429   -1.87843898154040   -1.66385734260360
O          -2.28949029109652    1.22763042698909    0.74341000582710
H          -2.90082692529080    1.93447263333365    0.95626084682348
O           2.25655600664104   -0.67383160395493   -1.81081624536348
H           2.25823564978040   -0.25339615826930   -0.93214207889103
H           1.89473147342965    0.00897110625734   -2.38547655528511
O          -2.07952142682217   -1.13990354593428    1.95771616336219
H          -2.20240851611047   -0.22815073812702    1.61165006640031
H          -2.68989694185245   -1.69256597947664    1.46509190192539
O          -1.36715700946381   -0.10405809772501   -1.54722846574693
H          -0.52424993777219   -1.62245644177754   -1.55089146478626
H          -1.92064440411783    0.27363070468045   -0.85147651272281
H          -0.63987023772650    0.53696986327881   -1.65716205919936
N           0.44717746883176   -1.61070467429626    1.14922076054871
H           0.32558151999851   -2.01906670856590    0.14575897030714
H           0.95139632573490   -0.69704220544082    1.01622183574803
H          -0.49977614333213   -1.44318908497252    1.56435585782115
H           0.99734723295490   -2.22894663092494    1.73473862433751
