    26
        -50.46164388  Gyration_radius:  2.55386792296 Dipole_moment: 3.313
 S          -1.12891564674529   -1.38403113421917    1.60151587661475
O          -1.29891338503012   -1.26570402723945    0.13800264879310
O          -0.89307206025580   -0.07134109478838    2.16010587488287
O          -0.18797736957579   -2.40767745953045    1.95924546367963
O          -2.54703822484534   -1.87213241785460    2.14654173601148
H          -2.37595650562543   -2.76519970511798    2.43084000915667
H           1.48121916588865   -2.50120743433164    0.13005546228545
O           1.27414831848088   -1.67741755378236   -0.31857766664440
H           0.30128041184179   -1.59199654564293   -0.23380553063320
O           1.18512220090966    2.16634543168374    0.20430986554919
H           1.40311296727970    2.98367629419017    0.65292668565735
O           1.63540864746919    0.50612047140793   -2.04211577242209
H           1.63992731584771   -0.33532142300434   -1.56190336632473
H           1.69509195424083    1.19379965688287   -1.36419145484408
O          -0.77574395746559    0.90116115354234   -3.04539696146057
H           0.18606607779897    0.78251771803865   -2.83182498941015
H          -1.08398176473374    0.04572487882401   -3.34988012578706
O           1.71052917818202    0.15149359313068    1.71451061891698
H           0.81723563391286    0.04891633231015    2.09945299633558
H           1.79008165615337   -0.57544802632378    1.07263356519897
H           1.46557515669419    1.42300921089563    0.82591180669151
N          -1.27553252380505    1.27004432257971   -0.47163251647773
H          -1.22795487722864    1.24134690813900   -1.52895540086599
H          -2.07463785465735    1.78888092377844   -0.12554751337516
H          -1.33381507349174    0.25853954917863   -0.14508819352514
H          -0.38125944133642    1.68590038727223   -0.11713308803734
