    26
        -50.46164388  Gyration_radius:  2.5538718644 Dipole_moment: 3.313
 S          -1.56026517572545   -1.81219451834636    0.19063068213680
O          -0.70864703581554   -1.38653215803933   -0.93999236722005
O          -2.07631828742050   -0.64121721792952    0.86390955297482
O          -0.91574379626088   -2.79180787258041    1.01897133597938
O          -2.80663807443935   -2.54767138226289   -0.48167852884998
H          -2.67737967472479   -3.46032967488986   -0.24082835909369
H           1.51264854242305   -2.30770224979825    0.92367291819132
O           0.19074577449490    2.17196850572771    1.17718976560605
H          -0.14971532224883    2.88552953882806    1.71729521781695
O           1.48622168864769   -1.42903466798906    0.53634688288455
H           0.73225732543609   -1.46141226134426   -0.08930180975912
O           1.32917891546834    1.47874398583214   -2.59513141311361
H           1.87980267284498    1.41110076856399   -1.77232434884482
H           1.51733831949628    0.68684823502205   -3.10206578983004
O           2.41308626992653    1.10979004042276   -0.21495300432635
H           2.28120829738479    0.18688329249129    0.04866597411020
H           1.83584955413994    1.63069054422233    0.36080753284795
O          -0.01262697077045   -0.06776203259035    2.42568197474347
H           0.64589722630137   -0.62101804558339    1.97068962171370
H           0.13207621973755    1.33981004595748    1.74433398118475
H          -0.87279761858172   -0.34176233834587    2.04923531004199
N          -0.85591449284815    1.21086467770422   -1.12417593686697
H          -0.09604295808395    1.42450316887356   -1.82985332377648
H          -0.57028265390467    1.62313469768976   -0.20399396424726
H          -1.76599141928123    1.55734165860508   -1.40569209558717
H          -0.88794734619558    0.15123525978077   -1.02743979872026
