    26
        -50.46929796  Gyration_radius:  2.49725038322 Dipole_moment: 5.054
 S          -1.65446417059627    0.63366108272813   -1.13984802556366
O          -0.33767936139179    0.63254155722094   -1.78915658031208
O          -1.69456496749452    1.48098354104244    0.02281963727886
O          -2.11167546456526   -0.72588315870582   -0.91399027913501
O          -2.65143003872253    1.25767759380219   -2.19819508422693
H          -2.73339979893065    0.54324190713031   -2.82020836077678
H          -1.63578560280157   -1.54774706580339    0.35732239318381
O           2.07450066269945    1.28244405624938    1.03422341785975
H           1.70856403905903    2.03048888342829    0.50933013896557
O          -1.32740600759544   -2.05117752242027    1.15801502124001
H          -2.05313878260915   -2.63033439324728    1.39567409417839
O           0.62306946631193    2.84455717216825   -0.58982799116586
H           0.33644169113446    2.12729344435203   -1.18327742814207
H          -0.16759623141121    3.04002166375908   -0.07599456780370
O           1.20206985719718   -2.74854991624430    0.66769892392644
H           1.61404528342468   -2.69149046404293    1.53245455329355
H           0.24167983304597   -2.60249461761051    0.81708757854976
O          -0.25216405802061    0.39554094079429    2.01113762767944
H          -0.57953206328417   -0.51241302414601    1.97244639513768
H           1.32475346997373    0.99758561997868    1.60056456454796
H          -0.82815671005364    0.89023635198923    1.39841936150893
N           1.79525447156634   -0.54845989290140   -0.76995034845323
H           0.92571834687225   -0.18658262190694   -1.23879569624625
H           1.59727739915575   -1.46205067437907   -0.29743462333390
H           2.54193802605791   -0.64378665516359   -1.44900510105138
H           2.04168071096601    0.19469620201560   -0.01150964109861
