    26
        -50.46294115  Gyration_radius:  2.45918563858 Dipole_moment: 6.740
 S           0.20270159403214   -0.59904750003248    1.36668524043254
O           1.46187622159981   -1.33800676284142    1.43405669230744
O          -0.60401620094466   -1.07008394993375    0.22492268170277
O           0.43644923698422    0.83107538797636    1.26024996820847
O          -0.57599673024155   -0.89609540655737    2.66104387163085
H          -1.49929368698563   -0.56886905241881    2.45002508280737
H           1.19131353097704    1.41829564291424    0.03650840089118
O           1.70857268762061    1.68287428406825   -0.78169949839786
H           2.13227007043096    2.51358492732499   -0.56010472643787
O          -2.71750816008424    2.25959061009715    0.42272325380314
H          -3.52739510654242    2.45995743387934   -0.04974283087658
O           0.61926647032844   -2.25736311320998   -1.78280429336390
H           0.54887981725436   -3.20269475486587   -1.64023956345659
H           0.06288237414578   -1.83979775017207   -1.08191961436814
O          -2.78513414813014   -0.14996504043705    1.60768757338022
H          -2.79075201858843    0.80182002206228    1.35364911588229
H          -2.43418648819350   -0.61575530492690    0.83705624579216
O          -1.08528341399134    1.07547142388236   -1.35949226145458
H          -2.07865983992517    1.93980144339675   -0.25321285867031
H          -0.21447794686123    1.47742145697722   -1.44976420779052
H          -0.94257322711869    0.27020396554242   -0.82832961049841
N           2.61779203202460   -0.83573299133365   -0.79474468538888
H           1.98394531932750   -1.41203290820713   -1.40566757891592
H           3.59686929340245   -1.06533025656924   -0.92410418259277
H           2.42495692161754    0.18122311264024   -0.94915966883964
H           2.26750138780014   -1.06054490925220    0.20637745419550
