    26
        -50.45792479  Gyration_radius:  2.59226909026 Dipole_moment: 3.556
 S          -0.55133765515507    0.88519803792756   -1.99637039319969
O          -1.14288708880518    0.77748108557716   -0.67594000351843
O           0.53511707272586   -0.07597790871800   -2.16535359994704
O          -0.18830877269699    2.22815716978458   -2.38404029474463
O          -1.70101996923788    0.42966466317138   -3.00385621216287
H          -1.38853285786203    0.76106215329757   -3.83998215969974
H           0.71034129312378    2.55627024300068   -1.05279001860747
O          -1.77390628693985   -1.20424868558045    1.04825884990257
H          -1.97642138320279   -0.64820740807572    0.27749359884332
O           2.13867007172311    0.76935268631603    1.29962210589733
H           3.07937356766335    0.92649858489489    1.38946933541850
O          -0.34985332660514   -3.68983321691555    0.83971543399969
H          -1.05179572086424   -3.04286353688073    0.99816569941768
H          -0.74933604238146   -4.55503743312902    0.93370506590110
O           1.11136640059414    2.70564418180672   -0.16707110186277
H           0.44714939018830    3.18302471644131    0.33634668915901
H           1.79871378104771    1.48601293485803    0.70560268888250
O          -0.67992114326707    1.08635043123666    2.01980618412778
H          -0.85130592054641    1.20817668749330    1.07062855805856
H          -1.61971315621505   -0.55410552907098    1.75814222888611
H           0.27734952726256    1.03520702555967    2.11074173885548
N           0.80576710577281   -1.27056052583302    0.10563746231593
H           0.73285497552764   -0.86649927799603   -0.88236709330945
H          -0.15440334989916   -1.23656652108702    0.51943829996030
H           1.10362135750552   -2.24456468673242    0.10855451325096
H           1.43841812056173   -0.64963587129704    0.64644240417911
