    26
        -50.46081091  Gyration_radius:  2.63205817258 Dipole_moment: 3.896
 S          -0.83213680288614    0.10338266800490    1.57821014319869
O          -0.47602686183406   -1.30359572018984    1.64484521312648
O          -1.38447665578986    0.45556519908862    0.28170339028390
O           0.31766988131864    0.96637105138706    1.89441663626786
O          -1.91415828945654    0.35474881151074    2.67432538010294
H          -1.97048554059461    1.32966470698378    2.72752388014483
H           1.59851267869939    0.66258930021810    0.96644419242218
O           2.33599870803472    0.44394779662216    0.33807998366829
H           3.14583575652927    0.52513076919722    0.84373422990395
O          -0.95714182019078   -0.42294469147622   -2.24908151860671
H          -1.53287069570718   -0.23709698928644   -1.48776610291369
O           0.14718755123897   -3.02534250893617   -2.86898962293068
H          -0.16564850508813   -3.63525404869826   -3.53788792209779
H          -0.39094343701735   -2.22621411844950   -2.95025942541996
O          -1.26124299423942    2.92101922194797    2.65306011058775
H          -0.50419255496680    2.40797459103426    2.30419362536484
H          -0.97195463537758    3.30731538907933    3.48264298004548
O           0.38036188498797    1.73164998830362   -1.36787398985346
H           1.23865989711630    1.55957176093412   -0.96627472466609
H          -0.47565589791298    0.42060868984710   -2.36221277134406
H          -0.27550421234588    1.52750408020870   -0.67741129215635
N           0.81242856523635   -1.59463963955933   -0.58824720488641
H           0.16449576760172   -1.13742125987882   -1.28601369641535
H           1.62233660079811   -0.97373798298276   -0.41106100345014
H           0.27645179824327   -1.65585142626559    0.32887644515976
H           1.07249979412323   -2.50494562822409   -0.96497696577584
