    26
        -50.45879829  Gyration_radius:  2.43202303371 Dipole_moment: 2.698
 S           0.87814391184336   -1.33958814432701    1.23053461994232
O           1.44027185334340   -1.56421814142467   -0.09811897132135
O          -0.50748496805610   -1.75926201542557    1.29758868378765
O           1.10122086879379    0.01238323875597    1.69586462821962
O           1.66524403525103   -2.29266619955699    2.22033945335170
H           1.19896509727480   -3.10769964077632    2.07087427480134
H          -0.06055769729541    1.10172444514526    1.65910525065516
O          -0.29008712434314   -1.74927506916022   -2.01182352601644
H           0.32963853541457   -1.75361992100538   -1.23734362131319
O          -0.78667470243838    1.77803917649134    1.59403832901405
H          -0.69269715910242    2.34152246133341    2.36307135155028
O          -1.90819992719726    0.18947547389870   -1.59756588953239
H          -1.31508047991903   -0.60716213477657   -1.81703754689511
H          -1.26336584023350    1.03569187836295   -1.46722217322961
O          -0.37769791704079    2.08388213580857   -1.08501211972355
H           0.56600874146426    1.73757298520655   -1.10944907710629
H          -0.57188524992286    2.19957730335166   -0.13677185089713
O          -2.51591598878047   -0.17121286063351    0.80097913563714
H          -2.14554134195319    0.63233434531292    1.20804327234558
H          -2.28327536106661    0.00600618197078   -0.62477379937313
H          -1.86865840607013   -0.88016770107580    1.03332684853598
N           2.05132802642177    1.08056528468916   -0.88875805367282
H           1.89878537955995    0.10493912794771   -0.62823909447236
H           0.26177433816762   -1.71088469141073   -2.79512843230238
H           2.43644941216648    1.52572570715430   -0.06428839797028
H           2.75929195371081    1.10631679414254   -1.61223330401738
