    26
        -50.45499978  Gyration_radius:  2.40442696149 Dipole_moment: 8.857
 S          -1.60686337797000   -1.20086879337639   -0.89372487635979
O          -2.29646244262173   -2.42733391034012   -1.09988656889561
O          -1.36064877368246   -0.37043579762844   -2.06782158640121
O          -0.12446147797325   -1.58429742168013   -0.36915140277555
O          -2.14900429749987   -0.39355923231552    0.21609540332903
H          -1.52631878647598   -0.93015810052619    1.54856558785770
H           0.42218273572976   -0.96462966420748   -0.87831151481209
O           0.45933898519530    2.26231310571609    0.07190548974004
H           0.59411859567000    3.19224249240902    0.25746003317983
O          -0.92936540084804   -1.28186866505400    2.26969064811221
H          -0.80753452668226   -2.20667182006029    2.04270619114892
O           2.75095855535920   -1.05867158456800   -0.08067592498815
H           2.45077332124777   -1.96101145038907   -0.21763890898790
H           2.47309012940767   -0.56290115086674   -0.87095908990200
O           1.12489565750734    0.32857445211915   -1.81292260467722
H           0.22709818925416    0.15818787913045   -2.18583251799925
H           1.03862866569231    1.15526171455733   -1.31224216758792
O          -1.92813492371186    1.95401272988954   -0.81134739212603
H          -0.49920363110481    2.18299278158901   -0.25259555429920
H          -1.86273497351499    1.58688386082243   -1.70321037431484
H          -2.17485131536499    1.15258177628474   -0.28805665050024
N           1.15437995546936    0.20065162549954    1.70017507541878
H           0.82376558125008    1.02987288080979    1.15573228144070
H           1.81996600758572   -0.33596715245060    1.08811110348977
H           1.61716927903440    0.50233042013750    2.55169451638693
H           0.30921825904848   -0.42753097549698    1.94224082452385
