    26
        -50.46739091  Gyration_radius:  2.56864343303 Dipole_moment: 4.811
 S          -0.80958905376138    0.89683877172630    0.99917569619000
O           0.49121382358002    0.51924681246807    1.52656005357520
O          -1.50420445926400   -0.25176569693406    0.41898045002516
O          -0.71877272742538    1.99755917303692    0.04519969421258
O          -1.64436063843906    1.38941768040030    2.22633728622256
H          -2.38823562082821    1.88755328155715    1.83375510589434
H          -0.61945365792174    1.20412791898662   -1.64924457475670
O           1.08524735350653   -3.14563164258892   -0.52755685260452
H           0.42472754531994   -3.74305316466115   -0.88189367610982
O          -0.73875146213277    0.30758006010680   -2.00545055589341
H          -1.21847791254554   -0.11763983107916   -1.26203160322487
O          -3.09160226366086    2.93019544913916    0.62395678116369
H          -3.05388933499483    3.86975996258262    0.81585087740852
H          -2.24819453323621    2.70470384002032    0.17693316595307
O           2.65363208561982    0.68200333053617    0.10398765548676
H           1.82534944219487    0.75094445517105    0.64423500143103
H           3.33065636579035    0.38025408336095    0.71270743696345
O          -0.07170289974492   -2.12476272475932    1.58103483485885
H           0.45914125630765   -1.40995721092355    1.95717053180038
H          -0.79895466944533   -1.62533189813178    1.15624189212874
H           0.70492181642395   -2.81298359451418    0.33459347532713
N           1.60129333402255   -0.86514943672554   -1.78581143160568
H           2.12948026561478   -0.95476286681121   -2.64678926152157
H           2.11816256870729   -0.26506749521785   -1.08874419876129
H           0.65627535439726   -0.39318522103261   -1.96342682670457
H           1.42608804188054   -1.81089405566040   -1.34577095737768
