    26
        -50.46739086  Gyration_radius:  2.56856895829 Dipole_moment: 4.811
 S           0.39119658035618   -0.49027143282542    1.43667497407201
O           1.48430278470446   -0.20103358467019    0.50938991753489
O          -0.61730223983875   -1.33657018704416    0.82063098861287
O          -0.17864594267977    0.73744503745365    1.98246932609083
O           0.98001675454851   -1.31896796846361    2.62499103213425
H           1.43637705531706   -0.65878869304600    3.18307281643761
H           0.01354271305885    2.03450547568227    0.64442007017462
O           0.30868955863877   -0.72949940118080   -3.27461793762586
H           1.14706973296267   -0.47658478234764   -3.66439764231524
O           0.48513736183723    2.09473649742128   -0.20343319596186
H           1.12006282158953    1.35221415910920   -0.10784730109529
O           1.60394977074123    0.93044612936553    3.88506152944217
H           1.18297808552262    1.05143597836999    4.73900486870648
H           0.91894261827275    1.12014942407520    3.20919920363868
O          -2.69197383120778   -0.35175711162457   -0.38434775402729
H          -3.16172557469189   -1.13688691824098   -0.67220498616761
H          -1.95243797606431   -0.68198087069474    0.18720517023288
O           0.99816088993656   -2.14637266196418   -1.19051945957608
H           1.43788670191058   -1.45872147098771   -0.64959759302603
H           0.22921574767499   -2.35848347577763   -0.64467726820604
H           0.54170316070625   -1.35311661168345   -2.52928578251402
N          -1.14659935174182    1.08884259016931   -1.99941612988001
H          -0.58064846586803    0.40385432307108   -2.57317293796600
H          -1.61466997278925    1.76427996656481   -2.59354289141217
H          -1.84560813834618    0.54418375821633   -1.42662626392279
H          -0.48962087445930    1.57694184105999   -1.30843274335488
