    26
        -50.46043286  Gyration_radius:  2.54045501764 Dipole_moment: 4.791
 S          -2.20929418909855   -0.54442730721936    0.96785195036626
O          -2.51731762562233   -1.15149588359422   -0.30734752064806
O          -2.44374274001561    0.89991234815771    0.95874701468385
O          -0.87540180264177   -0.85283991079265    1.46156864252705
O          -3.21777509981483   -1.16442373557104    2.02143797896604
H          -4.02445973864547   -1.24644596930231    1.52164884786510
H           0.24831027963031    0.28019347068412    1.79355365852201
O           0.89723328788199    1.02751208101587    1.84643111418238
H           0.83121520850991    1.37450173290509    2.73656800457460
O           1.04213904535516   -2.13883736696970   -0.04848287061965
H           0.40687674729673   -1.91726071735234    0.65054629176917
O          -0.33744654281450   -0.71131336934930   -1.72667865720444
H          -1.23776673159243   -0.95757211192216   -1.42642525480009
H           0.24058853082753   -1.34234584723136   -1.20553374891051
O           1.90971623322984    0.84983407664511   -2.27907137231153
H           2.57007191352566    0.61290016019172   -2.93192452949964
H           1.18242971935073    0.21753005438466   -2.38205047769179
O           2.83495036132764   -0.12044557628769    0.19217455017584
H           1.82842010808169   -1.57459754931700    0.10780419019717
H           2.62092294423404    0.33160317540116   -0.64031412451172
H           2.35451520187374    0.34772437635546    0.88902806732211
N          -0.41033576146927    1.58865099404850   -0.45673099782559
H          -1.33328229293501    1.46615177525456    0.07114168393767
H          -0.38753313306542    2.41139688591827   -1.04969318157869
H           0.32252684504486    1.62304257338143    0.27188279019946
H          -0.29556077846839    0.69105165044362   -1.03613204953455
