    26
        -50.45387501  Gyration_radius:  2.63099538387 Dipole_moment: 5.313
 S          -1.00130258260285    0.38456672287394    2.40723130825208
O          -2.33057925335391    0.07789003069839    1.95916751199660
O          -0.31776750585145    1.28566348562440    1.46099067040468
O          -0.18318267789960   -0.78532605913936    2.68608173367374
O          -1.10997279016524    1.18714164271389    3.77169947080827
H          -0.21950163958087    1.20446367969218    4.11450205950398
H          -0.57780554127116   -1.67716503782641    1.44461016075183
O          -0.94580288080562   -2.10467264251859    0.62044426032238
H          -1.70571884197781   -2.60433344774046    0.92587753820361
O           0.15892232672670   -0.17795256080768   -2.75886756860006
H           0.02035252611285   -0.69069619389318   -3.55540673321844
O           1.76307823573760    1.99282035407926   -2.07248402365726
H           2.59253430494212    1.93931396526515   -2.54977761432833
H           1.18094055983323    1.31048402178890   -2.44425613496910
O           2.04148329303021    0.61998609675142    0.32848313884591
H           2.02876514065251    1.26370455966258   -0.40147684515103
H           1.27766283578174    0.85505026979785    0.88434270530423
O           1.35550260615425   -1.57546494658139   -0.96715555964862
H           1.73869473483335   -0.84279623763058   -0.41771092524994
H           0.70487439905274   -2.00710435241453   -0.40008436516037
H           0.67737423501739   -0.77213657174089   -2.12142139237263
N          -1.44253840938995    0.23456983202565   -0.61800529795832
H          -0.95372933924744    0.25522076070475   -1.53740666986127
H          -1.38420707286657   -0.73509330959572   -0.20820183495568
H          -0.95428124782168    0.83597806180498    0.11893157392405
H          -2.41379540503314    0.52588787642263   -0.67010714687891
