    26
        -50.46827131  Gyration_radius:  2.47339650072 Dipole_moment: 4.492
 S          -0.97783378155961    1.28230579762523   -0.60302604486214
O           0.35522585743580    1.53859025653823   -0.01388320953251
O          -2.00862671773769    2.02410716126759    0.07707935020364
O          -1.22650754535965   -0.16288210943092   -0.58699338055703
O          -0.93626942069604    1.75468872000633   -2.07478852945606
H          -0.30212487795965    1.17263048032895   -2.58129966373526
H          -2.53406750899959   -0.52442248172101    1.03500113869931
O          -2.62134767391552    0.13032872609907    1.73943199135399
H          -2.63713602748482    0.97458280603310    1.23065598698049
O           0.94563185482675   -2.04755438469532    2.10468730088589
H           0.37325855001447   -2.76477468716824    2.38248787619336
O           0.85597572821822    0.36631236339727   -3.34320402400709
H           1.52894922795792    0.28582282482109   -2.61092392106694
H           1.23853171596054    0.95340016698705   -3.99793557393867
O           2.34655321369822    0.23678182630978   -1.19960483558918
H           2.07555167341424   -0.64403551668475   -0.89578542856604
H           1.75257678474601    0.84987785551904   -0.71909340339714
O           0.69279441254687   -1.87580447502282   -0.55554135488111
H          -0.04815160369125   -1.20614464733470   -0.58724559229548
H           0.53222931829080   -2.47017715354040   -1.29002619399421
H           0.96769188861916   -2.07445438016745    1.12459984014241
N          -0.06163990856516    0.44323577189805    2.30057041629546
H           0.40742125461468   -0.49430039501676    2.32692316336718
H           0.20759163402571    0.94474690066295    1.39424814690792
H          -1.11679694899782    0.30184214841301    2.23698983637639
H           0.19051892064413    1.00529643489628    3.10667612845747
