    26
        -50.46522050  Gyration_radius:  2.54085581106 Dipole_moment: 3.679
 S           0.70319060004683   -1.00350986201904    1.70347851093885
O           0.36904279376729    0.39803971912740    1.92064091925178
O           1.73104125161187   -1.19038226828173    0.69805192161631
O          -0.48583868776803   -1.81086220775223    1.47423467339625
O           1.34065608990414   -1.52896405976129    3.05892876259364
H           0.62105972772813   -1.51956886043227    3.68281609651284
H          -0.44289750853770   -2.27143464971149   -0.23023173219292
O           1.43095797749520    1.72052604966126   -2.05640969287252
H           2.20580863902922    1.58511207739195   -2.60368353130093
O           0.05640871364580   -2.17155966581434   -1.06377025823873
H           0.94203545027494   -1.96493030636885   -0.71246667115560
O          -2.54876770119051    1.27130787751477   -0.67613146334556
H          -2.53156404489867    0.84814050237164    0.22688716010844
H          -2.41007611447330    2.20748733924414   -0.52269105615044
O          -2.23733451407182    0.21878588386683    1.69636118422239
H          -2.13446417688412   -0.73933236584635    1.61950834962268
H          -1.31746169358518    0.50570542772506    1.87540032356117
O           2.32156226584961    1.35884642860203    0.37129209933453
H           1.75987925172467    1.67128074287157   -1.11436115218868
H           1.62358581691291    1.49568795695768    1.02959158464377
H           2.41394936245139    0.38768823057601    0.39164526490147
N          -0.68554841536484    0.10492596999887   -2.16696767902404
H          -0.41716612869942   -0.83760399106669   -1.74050574624416
H          -1.02446324495743   -0.02942559364030   -3.11391558076730
H          -1.44265192586600    0.55706424278815   -1.58067557170040
H           0.15905621585666    0.73697537197828   -2.16702671552280
