    26
        -50.46485465  Gyration_radius:  2.49712245257 Dipole_moment: 3.694
 S           1.54361181745964   -1.16067501025480    0.49726614811667
O           1.69356895251180   -0.43264337377728   -0.77638483514172
O           0.95742672867776   -2.45365420764956    0.30258862854611
O           0.75441446957565   -0.32526361587998    1.42361968075546
O           2.96815066844506   -1.32742771285460    1.10538108582299
H           3.26167486353131   -0.42201948083449    1.33209747880379
H          -0.71287355961225   -0.99328899841147    1.16677634664378
O          -1.52515092252543   -1.44834180362937    0.83259555474340
H          -1.35070680731155   -2.37794564379341    1.00586539663847
O          -1.58490353901189    1.48435144157082   -1.86586496938488
H          -0.80946138618050    1.87718528078865   -1.40796724441440
O           2.87790567855046    1.27550729669966    1.64845668260781
H           1.99614332509376    0.89316194266466    1.80447337109257
H           2.77867621887427    1.88451353170249    0.91031497275752
O           0.55765422181617    1.91599780801565   -0.29063928482806
H           0.21487133362450    1.64134208437675    0.56659004372747
H           1.08762153413587    1.14775170866237   -0.59042824870297
O          -3.06318700792012    0.81385969487240    0.33140670870194
H          -2.28098391722970    1.42575654609705   -1.18700245706569
H          -3.26957327544298    1.27416926645700    1.14589450111872
H          -2.66625365827200   -0.03375411276635    0.58287385444916
N          -0.69610492747278   -0.95223249647311   -1.73377880196856
H          -1.11091576424186    0.02899837876603   -1.94001975001492
H          -1.12461583975250   -1.30331335382492   -0.84921242979218
H          -0.82803426192481   -1.60729231808511   -2.49646391371066
H           0.33104504469232   -0.82474285251684   -1.51843852950219
