    26
        -50.46172571  Gyration_radius:  2.64999668031 Dipole_moment: 3.703
 S          -0.39292264074252   -0.14002330583350    2.38963595115619
O          -0.35825262168248   -1.06310056331750    1.24601853098453
O          -1.31521484128130    0.94122894937309    2.16482010803217
O           0.94941301091437    0.27640391429827    2.75966556876139
O          -0.93214883242150   -0.98302095981655    3.61703586968056
H          -0.14837332923398   -1.44896761072048    3.88955919063369
H           1.54301236963830    1.13192807242390    1.55993885963487
O           1.87988899921605    1.60988455335800    0.75487761308510
H           2.59798771781490    2.16465631386728    1.06460016876185
O           0.76952413367997   -0.83887755660547   -2.57510927575756
H           1.36689177243112   -0.34985890314075   -3.14225071710881
O          -1.97668308231278   -1.68005309652580   -2.86807912253222
H          -2.21262325368956   -2.59642185841466   -3.01511462938429
H          -1.01751742736152   -1.62206715205184   -2.97046564944012
O          -0.65090672553337    2.51092446299818    0.13572070455139
H          -1.01372209014235    2.17413902504997    0.98050668681572
H           0.31202237348265    2.40410282702409    0.23065880653863
O           1.89315644900895   -0.99849725906404   -0.22517152253903
H           1.14631245938008   -1.20611466192028    0.36939644876172
H           2.12462143328222   -0.08298436260578   -0.00101597610231
H           1.27390465604776   -1.02798656668262   -1.73426654206304
N          -1.18634315477012    0.17305264113609   -0.93817374621645
H          -2.09942376063689   -0.07553055045511   -1.31364403658613
H          -0.47220826820960   -0.08071846731241   -1.65015385387787
H          -1.09718071677734    1.19526203046282   -0.66170165086048
H          -0.98321467010261   -0.38735995551500   -0.06728779494728
