    26
        -50.45598012  Gyration_radius:  2.65595147915 Dipole_moment: 5.353
 S          -2.64950764530272   -0.36565269107889    0.65419436019240
O          -2.99646403637281   -1.18979855480637   -0.46518207045311
O          -2.46987601265702    1.04651582181883    0.29689133687772
O          -1.46517312260854   -0.84772942449943    1.37373854022080
O          -3.84384478815779   -0.40863094435685    1.69414999237356
H          -3.54398133102470    0.12913714127855    2.42221964037283
H          -0.71061349547923   -1.63015342208921    0.13314336522243
O           1.33372033347476    2.04222977645299    0.19414979004859
H           1.03046444048205    2.86016141724441    0.58936980152120
O          -0.38803838076053   -1.86234150371197   -0.77117468193659
H          -1.17692136456495   -2.22160107299038   -1.19200161230484
O           2.24320118772643   -1.56900348104906    0.17393662771976
H           2.53275478938048   -0.93888386139048   -0.50807662127405
H           1.46293481692852   -2.00330546580343   -0.19095346925732
O           2.88565830157754    0.54278338341058   -1.52317623740019
H           3.83410697333457    0.67868088039402   -1.53093157764972
H           2.51350914626588    1.20848811781993   -0.92368053530409
O           1.01292570019652    0.13299251910327    1.86405275480325
H           1.24194754687728    1.33203742508445    0.91757494182421
H           0.09204268750870   -0.18490022741769    1.82021362252765
H           1.54762770494018   -0.56979633196857    1.43069207541360
N          -0.48714156778821    0.76989430484679   -1.32166861517263
H          -0.61346235455652    1.04987704220012   -2.28836417603611
H          -0.31007357917831   -0.26537360954530   -1.24996237225988
H           0.29405135385477    1.30307456750013   -0.86616651988358
H          -1.36984731422747    0.96129820356928   -0.73298834057724
