    26
        -50.46652394  Gyration_radius:  2.52918996963 Dipole_moment: 7.719
 S           0.33861551590286   -1.26720683179666   -1.05031486833633
O           0.28350813998656   -1.60080010647593    0.36553622869818
O           1.53909717164580   -0.54999705508036   -1.42114561273115
O          -0.86958733760660   -0.52889918242822   -1.45049194550749
O           0.30594768687255   -2.62757918726391   -1.81789686228830
H           0.36417001402955   -2.32498410283859   -2.74549110682861
H          -0.81782432605469   -1.30619938800183    1.53867821349931
O          -0.13715675224195    2.87946011680070    0.77840747916521
H           0.05230682527033    3.22948170432224    1.65052043439331
O          -1.50735869731876   -1.01099682824821    2.18264274007118
H          -2.05696512137467   -1.77883151217466    2.34639525701722
O           1.65181719526735   -0.31112352569725    2.30322258555613
H           1.33729120709308   -0.89756485169837    1.59146234044366
H           0.94760331577843   -0.30081638159415    2.95528760052317
O           0.43945712494520   -0.93648491057206   -3.83465220344455
H           1.17061190864005   -0.58209782976098   -3.30577335738533
H          -0.34971587271035   -0.52614154655449   -3.46057154153156
O           1.98661022983023    1.49290124459275    0.27071172223753
H           0.70465775302878    2.41447493219402    0.48972778415277
H           2.08551677277447    0.96802899106628    1.08512340235072
H           1.90735003421759    0.82752227340466   -0.43867014193132
N          -1.89978194779161    0.96167892836234    0.40199237081847
H          -2.82810691477310    1.29787501239092    0.17051112506241
H          -1.49832946677586    0.38766177581053   -0.40981264531076
H          -1.23609186197003    1.77384679902428    0.58292558854416
H          -1.91364259987109    0.31679147362803    1.22167543390899
