    26
        -50.46652387  Gyration_radius:  2.5291605737 Dipole_moment: 7.723
 S           0.64179186631833    1.29715907216446   -0.85428127151562
O           0.91940048414602   -0.02702878540970   -1.39104427047397
O           1.41278640148753    1.60542984258532    0.33053191981219
O          -0.80009159602940    1.45949425628309   -0.61025882737499
O           1.02155288846259    2.31038579314747   -1.98110379742764
H           0.82831063160485    3.16317315553406   -1.54422951615731
H          -0.03262191049456   -1.31116120889014   -1.74008414099221
O          -0.68345393200268   -2.04786083522122   -1.84460396609990
H          -0.87043056458808   -2.09928156867601   -2.78313099208365
O          -1.10947606600312   -1.32728665427266    2.43327158129418
H          -0.94671656588328   -2.23476259290593    2.69596358566507
O           0.21517260847659    3.96418376495905   -0.09457453018147
H          -0.61203509615857    3.46737720967468   -0.09539860250121
H           0.82116733941786    3.42532631974851    0.43702725766667
O           1.95319141531121   -2.07514473667571    0.03272596081498
H           1.39918342951908   -2.76565298032613   -0.33795631724478
H           1.78760099790083   -1.28754755211971   -0.51644275261209
O           1.28746466088969   -0.41280003666515    2.10430272206352
H           1.36674465375799    0.40438668805385    1.57686899023266
H          -0.20374213968508   -0.89557253876466    2.39232065186786
H           1.69225226099659   -1.10108471883042    1.54670443833817
N          -2.04417583129356   -0.71521795800802    0.05036210452815
H          -1.69559378480067   -1.39373230767122   -0.66088459403685
H          -1.57446713409860    0.21899747524140   -0.18753979544447
H          -3.05331982226700   -0.62032274275665    0.01840404945679
H          -1.72049518503336   -1.00145635017801    1.02305011237287
