    26
        -50.46287239  Gyration_radius:  2.64527891486 Dipole_moment: 3.031
 S          -2.30113370291690    0.35392934409533   -0.37097686382505
O          -2.13200309437816    0.19160624501107    1.06462738184794
O          -1.62968564008024   -0.68094087245791   -1.14111731708726
O          -1.96091490193583    1.69499805321232   -0.81981939801555
O          -3.84799495083421    0.15438290436174   -0.66938705068233
H          -4.27491155259253    0.85253474036376   -0.18202892225151
H          -0.81186890414310    2.29256803531188    0.38761656264050
O          -0.25422560021141    2.04932976039501    1.15167449162924
H          -0.81046331996438    1.37338307022615    1.57503716288425
O           1.50703848742752   -1.95176439924948    0.56519051474457
H           1.68088471700615   -2.57800478646328   -0.14038131895863
O           3.84336934657214   -0.29048956120793    0.92136298440425
H           4.51602714557680   -0.39420611106603    1.59500348481570
H           3.21312382968099   -1.01342532584443    1.04084232613561
O           0.05802109692459    0.84509574607631   -2.45568698847863
H          -0.48947047710835    1.62541273198540   -2.30087242563838
H          -0.53688345431942    0.11821517804197   -2.17316619183192
O          -1.05657214427636   -2.24908245116179    0.89783277062128
H          -1.29812469155549   -1.96173198684396   -0.00362893767723
H           0.55226973968933   -2.10922746483837    0.81965192456023
H          -1.44697719174099   -1.54096761206010    1.43231987083377
N           1.51256986480956    0.65266512139708   -0.24536271750668
H           1.43805086745716   -0.34940344666912    0.04184934168004
H           0.92305721935563    1.24569154017360    0.40738155458182
H           2.49881293999907    0.90473105399902   -0.18208482081078
H           1.10800437156359    0.76470049322176   -1.21587740862598
