    26
        -50.46287230  Gyration_radius:  2.64522495742 Dipole_moment: 3.031
 S          -0.38483829642918    1.62180972856118    1.66692592779825
O           1.03294920529219    1.68317411910895    1.34691519454058
O          -0.85357864498298    0.26549676572015    1.90255229724257
O          -1.20174956658402    2.33644902354795    0.69889744149013
O          -0.56721380769024    2.37020746867846    3.05549206279889
H          -0.28377224124891    3.26282807595260    2.88226819393004
H          -0.24378408718752    2.32550919686010   -0.80146333516636
O           1.04066824342756   -2.30276835288622   -0.14123631376574
H           0.53176379092438   -3.02603142139387    0.23041212027341
O           0.54328089899397    1.94340511051220   -1.23426725368166
H           1.14563622540702    1.85989842625149   -0.47487636160579
O           0.84215336837762   -2.42248353335931   -3.02154312418042
H           1.49485380503885   -2.78475492173114   -3.62129433245005
H           1.17975193801272   -2.55602772693358   -2.12579193119293
O          -2.59306224400181    0.11319918544160   -0.06096788011293
H          -2.10341350283641   -0.01786710751043    0.77855230192332
H          -2.63832469909101    1.07635205218408   -0.11838273025332
O           1.52327702958875   -0.86944632683068    1.97650561037024
H           1.35874400335261   -1.77872628566401    0.64944486975123
H           1.85648244944904    0.01455109882405    1.76081042816122
H           0.58549562863377   -0.67760341363802    2.17084490156982
N          -0.46238011089818   -0.49210636414412   -1.52084205161923
H          -1.41282353883609   -0.35049168682853   -1.07942024501267
H           0.01717514158417    0.45393017155904   -1.53655505718728
H           0.09473741254331   -1.14825751630146   -0.92825127614454
H          -0.50202838083159   -0.90024578598504   -2.45472946747952
