    26
        -50.45555341  Gyration_radius:  2.61975244232 Dipole_moment: 4.927
 S          -1.78575711236133   -1.57340493644909    1.06424648422448
O          -2.02743570961954   -1.74192847872212   -0.37308310400490
O          -2.64868781570559   -0.60114102517930    1.66802993653078
O          -0.36710839432942   -1.28960918475691    1.30070247999374
O          -2.07662537551851   -2.98194215243508    1.72613684634892
H          -1.50818612368181   -3.59007734205506    1.25977530126415
H          -0.39342572695375    0.34191669522943    1.48158379004707
O           0.70204199873950    0.89089284788374   -2.17110260269033
H           1.08697470202288    1.26635138993811   -2.96309804962316
O          -0.68285879538222    1.28666743043961    1.42200610906330
H          -1.41999027405645    1.33103229171633    2.03938668947708
O           3.29848857813066    0.19344175604740    0.55362102854502
H           4.16176559890994    0.01900615850388    0.17795292621109
H           2.69464442665115   -0.50200944031931    0.19722584664558
O           1.50937628859589   -1.41251138004200   -0.61036209808506
H           0.82816969313099   -1.46172122832265    0.08822189175131
H           1.15883397142821   -0.81706749629176   -1.28568562197740
O           1.57212189476075    2.13541650873891   -0.07712058487332
H           0.87878004662812    2.04345952852500    0.58978608677934
H           2.29722578439761    1.54566765850500    0.22684548616034
H           1.08575555630591    1.40600586792806   -1.39372842461516
N          -1.69013772693670    0.72405516293108   -1.00497579362975
H          -1.39565374797828    1.09134818821300   -0.06138402517821
H          -2.50690018810478    1.21039648478470   -1.35813284827736
H          -0.86855188610724    0.80939018353830   -1.64717495723582
H          -1.90285967289541   -0.32363547838846   -0.84967279284422
