    26
        -50.47250100  Gyration_radius:  2.48714422768 Dipole_moment: 2.857
 S          -1.95872326853059    1.10831941646843   -0.28142719933249
O          -1.68018691331569   -0.25287490385687    0.13500724502731
O          -1.41417074621342    1.39503804801676   -1.60272194515576
O          -1.56697911353368    2.10461139871602    0.69732365146929
O          -3.53414711339341    1.21674487999418   -0.40945862599709
H          -3.64585149508999    2.15770360163093   -0.48994349209618
H          -0.02795437376318    1.98938378765177    1.09589512136245
O           0.91524999617204    1.86342399709456    1.37978673334421
H           1.21331657594775    2.71933617092345    1.69110151148518
O           1.52150487210037   -2.08422276760014    0.96641665894389
H           1.92381779040492   -2.73670721978080    1.53989597419217
O          -0.40497889787734   -2.35061953556939   -0.98759778857231
H           0.29045726879298   -2.46918545184477   -0.31506634418884
H          -1.06922359187970   -1.77854939878057   -0.56054102041561
O           2.33702472122537    0.22860005445228   -0.28711057546073
H           1.91052324921051    0.87920355203587    0.30215232971240
H           2.24188568090541   -0.62884396979809    0.16557320177762
O          -0.12503734740416   -0.55628549346944    2.28540009474297
H           0.89260117020027   -1.55444414088380    1.53759475122647
H           0.31132806886865    0.30817052518462    2.28059935291237
H          -0.83152674606076   -0.47619038761949    1.61325752222036
N           0.55273854175585   -0.21455182138774   -2.18233844121671
H           0.84630459389281   -0.20977258001685   -3.15220013804112
H          -0.23964013777004    0.47263547773912   -2.02048880748335
H           0.19202570784248   -1.16777519149063   -1.87479272842092
H           1.34964150747140    0.03685195220259   -1.52631703206767
