    26
        -50.46423049  Gyration_radius:  2.54949942914 Dipole_moment: 2.210
 S          -1.35696826436938    1.88970985780330    0.89086890717135
O          -0.63524955581504    2.81641228005503    0.02623480742644
O          -0.64538693678236    1.52886174196449    2.08974346673026
O          -1.79762583433764    0.71326978759185    0.13605789899896
O          -2.67139761042462    2.65564837931686    1.33545912055900
H          -2.89980971689187    3.14465472267752    0.55088922124049
H          -1.41375946155114   -0.72876170774307    0.77246252867935
O          -0.77915333812830   -0.22254412599705   -2.22894017913400
H          -1.40623918921335    0.05485541021882   -1.53928246306689
O          -1.05849663808977   -1.57347569140020    1.15080564300911
H          -1.56798760646577   -1.73965281930588    1.94493822399340
O           2.66541518996286   -1.67739277628702   -0.41914071223443
H           2.40594270392340   -1.19096807889044    0.37762648095370
H           3.29090480086594   -2.34948680318644   -0.14605717136722
O           1.22398916811787   -0.17861702624224    1.39557717737813
H           0.73902942953930    0.55360711330252    1.83285110935192
H           0.53361721274236   -0.87294529492896    1.35589176607404
O           0.10417474349014   -2.51615295661617   -1.21417201750819
H          -0.34911467281207   -2.42834389203038   -0.36361551645993
H          -0.54679358219769   -1.15962704932043   -2.02142951393770
H           1.03823218366959   -2.30451818008298   -1.05038592250844
N           1.05948305731991    1.12285821418501   -0.98759664853060
H           1.27924124182342    0.55356931910701   -0.13787269186347
H           0.47263117156913    1.93972375734984   -0.65409142282000
H           1.90525668052548    1.41924583731169   -1.46201675654384
H           0.41006481354285    0.55006998119813   -1.63480533560835
