    26
        -50.47250273  Gyration_radius:  2.48730906613 Dipole_moment: 2.868
 S          -2.15041825657654   -0.71624272678892   -0.08440680507729
O          -1.56544968109487   -1.88789652564109   -0.72477582458336
O          -1.53152361992358    0.51474425184891   -0.53769329359536
O          -2.18836088546923   -0.84662264156317    1.35968334774199
O          -3.66035743152640   -0.65124690272625   -0.55954541548632
H          -4.03139625292126   -1.39090865258575   -0.09080122994585
H          -0.74669901552189   -0.71006818886549    2.02496730300364
O           1.94484039518063    1.94715891505849   -0.14117474803631
H           2.45005371041322    2.74973226369100   -0.01036404858931
O           0.14857567094459   -0.55989001648664    2.42759890012362
H           0.13803576664218   -1.01478788594158    3.27101864484073
O           0.43466279145616    1.10993904368234   -2.28939323192601
H          -0.41608719704212    1.07514022432447   -1.81424045618727
H           1.04789917932520    1.54591501836694   -1.66971405384945
O           2.17763106215448   -0.69523647678149    0.60172621898165
H           1.51066204310653   -0.71174831256348    1.31406922809870
H           2.28955605174862    0.24598975939058    0.37674314922017
O          -0.22804429496663    1.95582998695887    1.29540857360170
H          -0.07072090110893    1.26084113210015    1.95123470166384
H           1.12304938912553    2.03458433085567    0.42406132174658
H          -0.83987251424338    1.54768424997962    0.65019017876423
N           0.84768820937957   -1.38466073954470   -1.57276668977625
H           1.24252970413513   -2.07915178786425   -2.19615524562473
H           1.44752863194716   -1.24336958388333   -0.70740193456933
H           0.75333187957333   -0.43199760073829   -2.03859266693497
H          -0.12711443479434   -1.66373115429315   -1.25967592365978
