    26
        -50.45152949  Gyration_radius:  2.67347839335 Dipole_moment: 6.430
 S           0.56128359868608    0.02614883819015   -2.24034083072370
O           1.83493973956637    0.50917887327889   -1.72057652947397
O          -0.30952913773069    1.07377131032221   -2.69547301281772
O          -0.11987028367384   -0.80209610998121   -1.20667842473514
O           0.90992032845276   -0.94477492126975   -3.41701053681618
H           0.08063655925438   -1.42766522567257   -3.59672399957984
H          -1.02609533713399    0.46092886771927   -0.54267323884346
O           0.47953510514092   -1.21478950104228    1.39656029626557
H           0.33887050285296   -1.33906119909311    0.43924343995851
O          -1.31115000453034    1.33246507812183   -0.18763380948422
H          -1.44396359236259    1.84287422667434   -0.99487625854565
O          -1.38292914984480   -2.24900333487593   -3.02345432732943
H          -1.13254147297979   -1.77233380487802   -2.20790314910610
H          -1.29146497911013   -3.18525392779928   -2.83338976324625
O           0.87303211095964    0.74371397452477    3.53344932490308
H           0.96099308627781    0.69930573717651    4.48662240192131
H           0.97780190015929   -0.15694836288412    3.20278636536242
O          -1.67959502671558    0.11768865446974    2.30765228860806
H          -0.41022211946122   -0.98624082321680    1.74528091345471
H          -1.11978235413016    0.68841401774177    2.84819463919132
H          -1.87411706722166    0.61080778946147    1.49861295732254
N           1.24030416731883    1.22724318029809    0.66537364149729
H           1.80965165103102    1.84292316974064    1.23573485579758
H           0.28411902179457    1.60203083166063    0.49536256458608
H           1.64617363059056    1.01852809710837   -0.30967229341442
H           1.10399913279915    0.28214453425604    1.12153249526564
