    26
        -50.47250231  Gyration_radius:  2.48736689501 Dipole_moment: 2.903
 S          -1.61995303922782    0.72796602032630    1.41086482017818
O          -2.49304802392896    0.51621392268131    0.26255837823160
O          -0.35045201098615    1.31500102248177    1.02715554463655
O          -1.48217130025512   -0.46954256257382    2.21732374560791
O          -2.34101607177755    1.79934806316782    2.32834447245306
H          -3.09394216471190    1.30328025748701    2.63070474927706
H          -0.57994618209833   -1.58438102359864    1.52313171410640
O           0.73868668527339    2.09151767969544   -1.31741169247112
H           0.40828204757289    2.07158912040520   -0.40016572718584
O           0.03546490472056   -2.24179529195115    1.10443089768793
H          -0.20729900246678   -3.09627802143974    1.46396903331987
O           0.50275822486085   -1.72327909706674   -1.53745221654831
H           0.31725609249332   -2.00903640157843   -0.62286519505822
H           1.33068102055829   -1.21266832212144   -1.48393965866649
O           2.55605578288270    0.04070891900310   -1.02761065364941
H           2.36224522446937   -0.01587010782449   -0.04692322818333
H           3.50928345069141    0.03765806162326   -1.11611135300719
O           1.83886534578255   -0.15170756100523    1.46902775100708
H           1.51330990851319    1.49971612872883   -1.31536367540870
H           1.08466366223425    0.47135567119309    1.46063027003870
H           1.42794097196759   -1.02707230080233    1.52188909969875
N          -1.10901997918961    0.32942038594970   -1.93884217319568
H          -0.55132104108390   -0.57223036049376   -1.87027005176007
H          -1.73940906492534    0.39680940918639   -1.08792946130933
H          -0.40973177269626    1.12845790797729   -1.85951474027419
H          -1.64818364869321    0.37481851055832   -2.79563061952816
