    26
        -50.45376541  Gyration_radius:  2.44408167952 Dipole_moment: 7.301
 S          -0.80397416963047   -1.45857619347654    0.75538434529846
O          -0.04944507448609   -0.49427928653206    1.59074070988384
O           0.04975967157008   -2.57352226358726    0.39054128597913
O          -1.06393712953823   -0.68177039098778   -0.61594074531575
O          -2.09128624517926   -1.75626072844556    1.30346266237817
H          -2.77809320823319   -0.17970470153045    1.32995642967906
H          -0.43102218481542   -1.03667203850413   -1.27779868354028
O           2.06296078321267    0.96939594002402   -1.44288909264167
H           2.65994035921361    1.69018075100369   -1.64588805261439
O          -3.15106774223512    0.71806375653308    1.42723106299900
H          -3.84883661599559    0.63740133964611    2.07989797267703
O           0.78011058436628   -1.20423514020291   -2.46336232794235
H           1.30501345412207   -0.39496394112300   -2.32773829339955
H           0.36696701875980   -1.13324647963101   -3.32556032139941
O          -0.79188304503936    2.10219392019325    1.66322536252889
H          -1.74694663765067    1.92406890396026    1.60909907952727
H          -0.42219323469583    1.21712780139270    1.82820721692347
O          -0.23963835440341    1.95383028446132   -0.90137470833039
H           1.17495922974802    1.40429848965463   -1.20338508077517
H          -0.81801807440908    1.18332584830177   -0.99465761955403
H          -0.36664519021358    2.20999505871686    0.05016230554361
N           2.10049792443675   -1.01674434771582    0.42129154011934
H           2.25719637845451   -0.32188482429987   -0.33518685144138
H           1.56507752250083   -1.86036225799320    0.09737332462856
H           2.95790776832539   -1.26564632107697    0.90162518054900
H           1.32259621186783   -0.63201320866777    1.08558332825270
