    26
        -50.47250313  Gyration_radius:  2.48722877449 Dipole_moment: 2.883
 S          -0.36398592919927    0.70824060149428    2.12369977788252
O          -1.75066524574822    0.79838068656757    1.68285557227148
O           0.56007743302518    1.17149957066777    1.10628699023475
O          -0.04200896390887   -0.60798073253412    2.64101049645087
O          -0.21497424241525    1.70948450638601    3.34227979256318
H          -0.72702104075789    1.26417681409366    4.00857852172256
H           0.06294634059162   -1.70992617354130    1.49487707732885
O           1.48664225803238   -0.14517061705016   -2.31463080433062
H           2.20268710099090   -0.26585789599724   -2.93852083348352
O           0.18755809317729   -2.36952071130168    0.76296921308960
H           0.02123060246149   -3.22940496676169    1.15189411149526
O          -0.80722963766667   -1.50871136589633   -1.63306218751065
H          -0.00773583836877   -1.13058106517489   -2.04173350930347
H          -0.50388879968083   -1.90744869664354   -0.79559905259696
O           0.28051937319909    2.15464654977820   -1.39197196719503
H           0.78413423458826    1.47039292045834   -1.86983001652290
H           0.52406571117060    2.03416946418931   -0.45544352989062
O           2.26705538684081   -0.63288541691698    0.12205005860442
H           1.86761538986740   -0.32962357139748   -1.40721862079601
H           1.78364393389104    0.08120431041504    0.58411027111277
H           1.78715033962498   -1.44044625895997    0.35765927306112
N          -1.90989751074238    0.78199942399826   -0.91915356148069
H          -1.14139960925832    1.45559613515603   -1.21803162461190
H          -2.81341838989891    1.03712710029385   -1.30051513945075
H          -1.60707613366151   -0.18625044910628   -1.23431983602602
H          -1.92602484615371    0.79688985778293    0.14175950738401
