    26
        -50.47250310  Gyration_radius:  2.48716115087 Dipole_moment: 2.880
 S          -1.54144127380926   -0.67164125528388    1.52177505378587
O          -2.36268718041441    0.36279466365962    0.90460199674530
O          -0.16318021493391   -0.24819030198508    1.67883349627999
O          -1.68072613476601   -1.94978580417472    0.85046687689216
O          -2.10779167774658   -0.87931217822102    2.98665041164476
H          -2.94389388281519   -1.29350900912986    2.80242046331879
H          -0.96516372238108   -1.97598594569122   -0.57311416821691
O           2.57882688312166    0.55054916533136   -0.79867871443672
H           3.51779249207867    0.48644922138310   -0.97410963626272
O          -0.46014589087263   -1.99531289509808   -1.42798639989201
H          -0.88168904723981   -2.66536311320939   -1.96807239257247
O           0.26877103895457    0.49141934123801   -2.29729410071590
H           1.17242909317256    0.55693867351313   -1.93913425834210
H          -0.02674240403307   -0.41422541724539   -2.08541034237648
O           1.20101404671753    2.00658601498643    1.09302431464249
H           0.81478299602086    1.24042480234489    1.55628450294469
H           1.84934095065266    1.62236671782773    0.47484264097130
O           1.67781487617663   -1.62379227756382    0.31694824702440
H           1.10716307790439   -2.01003637149870   -0.36352247926288
H           2.31445934156703   -0.30742858326509   -0.35534543527228
H           1.05625344568016   -1.22196379057354    0.95681901903576
N          -0.90069618104288    2.01443174536008   -0.48481414797113
H          -0.52697206340479    1.46293072412972   -1.31233944069129
H          -0.07090564656958    2.20854058115262    0.15342259064621
H          -1.36653660298300    2.86520660253645   -0.77811009030041
H          -1.56007632976523    1.38790867972457    0.06184200244090
