    26
        -50.45420602  Gyration_radius:  2.39515460141 Dipole_moment: 8.241
 S          -0.94307612302096    1.69692383111165    0.71813416502906
O          -2.23951191162392    1.06346545156871    0.43496776703673
O          -0.92407587560736    3.11866655958744    0.63597403384071
O           0.01771123760457    1.11427332670343   -0.41364975028121
O          -0.35053190001245    1.15026455441354    1.94174458610888
H          -0.10580195217077   -0.37655593866235    2.09424366378222
H          -0.39734691640947    1.21800049450477   -1.29120193453654
O           0.47634156959817   -1.46206111144564   -1.80697872768393
H           0.87798480702118   -2.25890724550612   -2.15653371407523
O           0.01411501965722   -1.37332257493486    2.12671134699760
H           0.02852358959825   -1.60083585374348    3.05716603746967
O           2.17398192563560    1.62944062814211    1.19876489846893
H           2.10371610404462    2.39580575849194    0.62743626379207
H           1.28815625884784    1.52784325903137    1.59625617362005
O          -0.63990602512560    0.76989200841822   -2.95913057756218
H          -0.01759637842949    1.26810244443152   -3.49205881481389
H          -0.21594224888056   -0.08155941378160   -2.75083823323765
O           2.02487902958910   -0.90930715146216    0.19488874767534
H           1.49182303158346   -1.22592677408484    0.93886499629456
H           1.10256327768768   -1.13757502522104   -1.08580110188587
H           2.18836688246413    0.03332169915484    0.40679167237971
N          -1.60275258303693   -1.34178990972947   -0.01706122801760
H          -1.94171721563802   -0.29487080686117    0.13859150064378
H          -0.92636378041000   -1.37449822740160   -0.80692913546743
H          -1.08925990405214   -1.59479477080736    0.85115779651416
H          -2.39427993893358   -1.95399523199998   -0.18151045207558
