    26
        -50.45592069  Gyration_radius:  2.62491490875 Dipole_moment: 4.121
 S          -2.44373093590434   -0.62562481761045    0.86765443931357
O          -2.78208664558885    0.80090204370244    0.77501910607006
O          -1.12091025401263   -0.82664111936378    1.40483344105016
O          -2.65987617700124   -1.30751810214423   -0.39694228310668
O          -3.47322663182465   -1.25324912817818    1.90213675377260
H          -4.30117436160888   -1.21718748243008    1.43150060935649
H          -1.20819206706160   -1.21455182727480   -1.17573211483352
O           1.60311924023651    1.93051911543088    0.44067716866600
H           2.04104825175907    2.60515124947014    0.95995881614814
O          -0.31771835826800   -0.91112130625788   -1.47619838923330
H           0.31590484323978   -1.35949657552151   -0.89106151094443
O           2.40077093024853    0.39624071121100   -1.73546202308814
H           2.21492188045221    1.04620398426886   -1.03553068550287
H           1.56638790200522    0.21807043141415   -2.18015357959090
O           2.09234469724152   -1.81828264023609   -0.26420298592998
H           2.57145876092981   -2.60139342996839   -0.53540868957727
H           2.41141398401068   -1.07341030605820   -0.82235403273310
O           1.40485435668901   -0.19430774226043    1.86354168395152
H           1.77867665280677   -0.89749340086897    1.30915832233054
H           1.55168706961127    1.11038707809024    1.03852340281991
H           0.44782791947430   -0.39464540430023    1.87490151203072
N          -0.81265869256155    1.54952948447450   -0.68125365825495
H          -1.64610809254561    1.35777800009184   -0.02039225808410
H          -1.08421676927060    2.19746255252498   -1.41309583709765
H           0.01925972014796    1.89356396309534   -0.15965600179227
H          -0.56977722269793    0.58911467856910   -1.08046120580463
