    26
        -50.46028238  Gyration_radius:  2.46655657665 Dipole_moment: 4.396
 S           0.40379643027035    0.21668549879234    2.09472987369268
O          -0.63016037630645   -0.02582585854510    3.06245045619754
O           0.10203741025513    1.34440370472208    1.19492083744786
O           0.72550739090246   -0.96223725396771    1.29701413037234
O           1.71093102337336    0.61669464895963    2.88008249396837
H           2.35562689228960    0.85417762187602    2.19619909923564
H           1.40496386898659   -0.78052144161712   -0.12560296155300
O          -2.11945329501280   -0.40291203474256    0.95656578726540
H          -1.70876341587455   -0.41418774224564    1.85003059117042
O           1.64943187629120   -0.69588502526673   -1.08615555439535
H           2.48034822316411   -0.21497861565747   -1.07522390747996
O          -2.15290829791394   -0.24255083622490   -2.62361069725192
H          -1.49857598112470    0.43755696885975   -2.32052340567025
H          -3.01638383534537    0.07450375558956   -2.35330193140202
O           2.60982606862301    1.57035919784477    0.48250452151428
H           2.90634482394701    2.48224036812540    0.46158836624810
H           1.63487649342534    1.60205516346263    0.61223367528342
O          -0.27797200263731    1.20577171824740   -1.46960341911063
H          -0.26986099097919    1.39505065678879   -0.51307308564283
H           0.48683941789775    0.61179224667402   -1.58622319578667
H          -1.98792013721039    0.50595938842019    0.66742821624677
N          -0.95594515495265   -1.86523614475125   -0.92904172286909
H           0.04801606734510   -1.67539570782012   -1.03918477762708
H          -1.12519758310019   -2.86366215655054   -0.87020912341843
H          -1.28958312008019   -1.37603173932211   -0.04293197464207
H          -1.48582175620984   -1.39782637165678   -1.72106229181072
