    26
        -50.46028239  Gyration_radius:  2.46685353908 Dipole_moment: 4.381
 S          -1.35087663579204   -0.38865273665921    1.61812102199277
O          -1.49129909183451    0.74173462245872    0.68259487407383
O          -1.02214907282164    0.02239557868934    2.95495517102088
O          -0.40235728587940   -1.35220152272077    1.06884307375109
O          -2.75786990721175   -1.09801279564615    1.66682055657957
H          -2.98377053290257   -1.27835981222855    0.74139302356977
H          -0.27496130973347   -1.50717177994896   -0.50600834780580
O           1.09045226774286    1.04285022349790    1.81935731691274
H           0.43713914239741    0.63868581557288    2.43340196509808
O          -0.03619051801156   -1.49096490709359   -1.47144394255754
H          -0.85691649719257   -1.70932087186129   -1.91948219137020
O          -2.81543851657814   -0.71851294295800   -1.03773367564310
H          -2.31094223730002   -0.04516712257578   -0.52711203697187
H          -3.58012743057433   -0.26408277167304   -1.39625347760064
O           2.66442316920810    1.62615217709388   -1.35810405028306
H           1.68718696600341    1.62931250814161   -1.52479431969261
H           2.85347830801521    2.41503099518444   -0.84720732120205
O           0.05994706501601    1.24095636477466   -1.46418730560465
H           0.55324559396129    1.64381149107538    1.29287087655932
H           0.04251711270377    0.30575649606216   -1.74096137568678
H          -0.51022948635966    1.25010109619939   -0.67315626234610
N           2.22078446789710   -0.56482871789202    0.03477992596664
H           2.94697697972459   -1.17247998798896    0.39865806720478
H           1.54496978535430   -1.10353024699649   -0.52084651221297
H           1.69232050461116   -0.09448846095901    0.83218146849173
H           2.59968715953411    0.23098731833398   -0.55668650222106
