    26
        -50.46028240  Gyration_radius:  2.46668842436 Dipole_moment: 4.391
 S          -1.30928053176775   -1.57837382520935    0.62363907346671
O          -1.60488293564987   -1.76867353644908    2.01676607872223
O           0.11602813335015   -1.77207883683503    0.30223928942461
O          -1.74305543799755   -0.27854510066150    0.12166335910979
O          -2.09767439207471   -2.67621124689890   -0.18791823301310
H          -1.80525920348009   -2.57236055533729   -1.10644202481331
H          -1.05522658919325    0.32564511477476   -1.17492057197058
O          -0.52165282327387    0.81203575079302   -1.85922260352604
H          -0.57478145829133    0.25382965859230   -2.63857566371345
O           0.08199652071406    0.18968538261693    2.35203583518115
H          -0.64935958256698   -0.46401508535566    2.42330126127446
O          -0.40119092434979   -2.07998499964378   -2.24401129212308
H          -0.03075372284611   -1.95532430278596   -1.34081551715397
H           0.08410391905345   -2.80982020375351   -2.63332523962765
O           2.38054483777124    2.34605736790863    0.64140337663054
H           2.80478424767051    2.14489012973137    1.47732024655589
H           2.35886093265347    1.49815441874635    0.12835383030594
O           1.81312833663251    0.10529434790242   -0.62408519754907
H           1.15671327201118    0.43769563357129   -1.26442887158445
H           0.80268485417278   -0.32843415925179    1.97915340041747
H           1.35191647415882   -0.64113849904875   -0.19862556922043
N          -0.24836682529464    2.18827102287022    0.63619480271616
H          -0.49721568279079    1.88160170257426   -0.31246466729878
H           0.77510757678987    2.46952333308789    0.65208145353208
H          -0.87044668905656    2.92714329952241    0.94614573862130
H          -0.31672232642397    1.34513318850451    1.28453770541961
