    26
        -50.44507713  Gyration_radius:  2.61703339283 Dipole_moment: 6.343
 S          -2.35840087775305    0.00592283168800    1.81336226994829
O          -2.13198631679095   -0.67992634455104    0.56965426725514
O          -3.68045489613338    0.05171036196529    2.32502728476472
O          -1.89926878889481    1.51276056942049    1.54681423732407
O          -1.37908331835371   -0.46811417141712    2.86264022287949
H          -0.38921451593238   -0.52365674366458    2.41560148690729
H          -2.42710771622111    2.04325267042124    2.13662070276986
O           1.15389322254559    1.62405222955677    0.20059815961466
H           1.61635425227578    2.40447843307191    0.50625188917803
O           0.27587857491377   -0.86587446791143   -2.59722018338133
H          -0.25268825340705   -1.22011982632350   -3.31320553444342
O           0.05267675090249   -2.15751332561882   -0.18250396950816
H           0.23993049998687   -1.80084428318450   -1.07191180766368
H          -0.86093632828240   -1.89445317502989    0.00858923697392
O           0.80932393097474   -0.54922841675294    1.73661741404446
H           0.89103098182237    0.30526146478984    1.25650074523283
H           0.65475103281462   -1.24049287058399    1.03266627560636
O          -1.10026878056275    0.97706245170519   -1.32028166425220
H          -1.60662052745346    0.43151799695809   -0.69454705095144
H          -0.43584887702490    1.42846699607652   -0.77767055534028
H          -0.25388849293660   -0.11982142601274   -2.20528126584538
N           2.71774593802089    0.10135643425717   -1.30441063032743
H           3.08085828437364   -0.65856440773003   -0.74185313540304
H           3.47657643657416    0.46767924105437   -1.86479969059680
H           2.02577705231758   -0.29476051889852   -1.93656447762989
H           1.78097075222899    1.11984833672172   -0.40069422716966
