    26
        -50.45930866  Gyration_radius:  2.54598327956 Dipole_moment: 6.943
 S           1.53039523137408   -0.86112378752206   -0.14643222426890
O           0.18382691163411   -1.34612124022081   -0.46791965518093
O           1.72645990494382   -0.66824445645442    1.26219936860979
O           1.79298373828486    0.36454452986996   -0.92546258830194
O           2.53944763090326   -1.94129939382850   -0.63872379013841
H           2.42891057782696   -1.91448972473352   -1.60816987666384
H           0.87290813976333    1.61556066341606   -0.59694490501783
O          -2.15796071472381    0.29677760739532    2.20874809894934
H          -2.72155997466521    0.79009168116711    2.80554163747897
O           0.22702772187587    2.34615200814231   -0.39230337280425
H           0.62108986656303    3.15058582266052   -0.73267685139138
O          -2.31979502867832   -2.16534161327003    0.56273034035435
H          -2.25600104446590   -1.74993363514667    1.42788095280408
H          -1.41467746253856   -2.23152587004567    0.23372682246972
O           2.17930699385440   -1.02271311363521   -3.10378205809520
H           2.99946738678099   -0.76533958947839   -3.53066646661324
H           1.97415536014236   -0.32510210877604   -2.44641539235752
O           0.24598212444004    1.30111618152178    2.24499554811677
H          -1.22842259109472    0.62825522214883    2.35704658188950
H           0.85499037820909    0.56105425345798    2.03748288744255
H           0.27773427010271    1.87729821528004    1.46824621985765
N          -1.69610150237204    0.43357048797292   -0.42194091240916
H          -2.42995103847130    0.25015383979136   -1.09798704888378
H          -0.93908755220468   -0.33020435570646   -0.49708336371454
H          -1.22393942820418    1.34066016075408   -0.56154986195870
H          -2.06718989926070    0.36561820522723    0.55945990983393
