    26
        -50.45450931  Gyration_radius:  2.45158980959 Dipole_moment: 5.293
 S          -1.59730050438747   -0.56438779256390   -1.22057854645239
O          -2.93110265780910   -0.13615748531961   -1.44077208249855
O          -1.18392659638507   -0.64585965090303    0.16862941785662
O          -0.65646485465419    0.38954318712609   -1.97571190161875
O          -1.34010967975414   -1.94407079315685   -1.86465768243791
H          -0.77813202865932   -2.49138700499277   -1.23558390908516
H           0.31802521159602    0.38799953340813   -1.64578196649691
O           0.90639702609332    2.30853230802740    0.82559841054770
H           1.22039029200361    3.21350215819280    0.81009704501128
O           2.18154424321895   -1.60121266215544    0.58873712792793
H           2.98765024163337   -1.90316876916338    1.00883437103731
O           0.01738662174434   -3.13050026631435   -0.02506711920118
H          -0.53385176274218   -2.75933294048843    0.67193903036931
H           0.88535572341747   -2.68962640422887    0.07197714591300
O           1.69333739181064    0.52064121094036   -1.06240200664284
H           1.94863591223163   -0.29423582161061   -0.59239744700794
H           1.53496893478659    1.20001189105591   -0.37405742986889
O           0.63663569236518   -0.14372422545641    2.09676419286956
H           0.84548924012921    0.78465375714740    1.91397082475885
H          -0.14505780340844   -0.32764080643588    1.54683083226255
H           1.66430734427698   -1.08921554558078    1.27461636305813
N          -1.65241471865017    2.23083973891047    0.07740237971069
H          -1.85733462278887    1.26010308234754    0.29249247690530
H          -1.69815176448447    2.29671877242858   -0.93318471873149
H          -2.40596682639219    2.79350166784604    0.45466423583357
H          -0.06031006519596    2.33447287093768    0.56764097597096
