    26
        -50.46201510  Gyration_radius:  2.69227537208 Dipole_moment: 2.864
 S          -0.78524912158514    1.57477304924666    2.07589690242326
O          -1.41201831935754    0.27468649174424    2.31707364969062
O          -0.99826065558365    2.05690806330436    0.73397328760971
O           0.61577440636582    1.55662905668535    2.47441339743207
O          -1.50762089845793    2.59575013427239    3.04928446150315
H          -1.25108617438239    2.25699730949410    3.90079395010500
H           1.46091856943337    0.72217302242753    1.45550001158251
O           1.14112524024411   -1.96511470709587   -2.60185317685742
H           1.28640956898805   -2.03349368865601   -3.54577387270704
O           1.94735894863066    0.09370892190935    0.84886942717952
H           2.85719018376472    0.08686986905231    1.15079302364647
O          -1.24622467411270    1.00757961952976   -1.62049552160341
H          -1.17933929692561    1.37809105456362   -0.70506629907114
H          -1.79100835312015    1.62697053218832   -2.10789270924696
O          -1.26132141428682   -1.71366771795554   -1.46099482118984
H          -1.41653891252584   -0.76374332710334   -1.61727493042643
H          -0.45173384802241   -1.93518818598204   -1.97393558224539
O           1.47352742074784    0.55027768577137   -1.84983282222764
H           0.54656680224388    0.84408144719357   -1.85673109700569
H           1.72344743049944    0.51203142610619   -0.91273374795062
H           1.38205544737000   -1.03646339705874   -2.35322819382870
N          -0.21986712073504   -1.55953167632431    0.92452546095571
H           0.72009236776317   -1.14087915555625    0.80161722823336
H          -0.78075457312645   -0.86011204558769    1.50656700072453
H          -0.69482745668408   -1.67898258477538   -0.03876118693127
H          -0.15861555715031   -2.45035119739280    1.40526618020342
