    26
        -50.46201458  Gyration_radius:  2.69169569877 Dipole_moment: 2.845
 S          -1.84312592036940    1.96096504740874    0.39647736601246
O          -2.23674190023476    0.77984131358703   -0.33058308092291
O          -0.68793261768884    2.63387234483167   -0.19857749944180
O          -1.63162726284483    1.72761548042839    1.81865599521886
O          -3.04778425904447    2.98562002508295    0.29187717887959
H          -2.74672883797366    3.68859790859397    0.85828919644027
H          -0.59736879547660    0.57116403877591    2.02522155039468
O           0.14606836948305   -0.09068640393540    2.11826089621812
H           0.27485109888361   -0.21243747025438    3.06039158974681
O           2.33412828176706   -2.51940235823468   -0.34878689795315
H           2.50837086172754   -3.41471659734937   -0.63997177663647
O           1.60263071289856   -0.51594138822401   -1.95817083356580
H           1.99408733099135   -1.28673405640277   -1.48918043769982
H           0.65654993275301   -0.72790319866976   -2.06275973287468
O          -1.05786144155809   -1.05963909440745   -1.72182917595120
H          -1.71528024589276   -1.34544128378436   -2.35753910668977
H          -1.48453546914301   -0.32657980285887   -1.21180305664270
O          -0.15132273303509   -2.36155422394157    0.54683520232415
H          -0.15419764349665   -1.62648975594882    1.18069479418225
H          -0.58910835231231   -2.01588777544021   -0.24955689114696
H           1.43794257886789   -2.53720738114233    0.07385291399705
N           1.41954012175012    1.14285419894795    0.04555206406727
H           2.26656823648361    1.67288021312792    0.21901481886555
H           1.54058085728329    0.50489815450176   -0.81821997233455
H           1.16748950215460    0.56973563812395    0.87125693286417
H           0.59480758402491    1.80257643717837   -0.11940203735518
