    26
        -50.46201459  Gyration_radius:  2.69233626196 Dipole_moment: 2.845
 S          -2.04218222882270   -1.79339446961564    0.13369220310875
O          -0.86445559978134   -2.14471601989376   -0.61999762536210
O          -2.65665113841346   -0.54667380193913   -0.32402568460543
O          -1.82711873621680   -1.76735435701221    1.57416433329240
O          -3.11246265486046   -2.93189893188153   -0.13209704109712
H          -3.81313927848580   -2.67376401774758    0.45782304626445
H          -0.63542952265185   -0.81561701093549    1.92640611748461
O           2.61797211553080    2.25330124802024   -0.02268388054891
H           3.52448438875360    2.42306304479930   -0.27992836542844
O           0.05249155973383   -0.11708723263252    2.12193138204737
H           0.15727888980106   -0.10918631897265    3.07479767610556
O           0.61906353526135    1.80368089465728   -1.73756517696328
H           0.79635498071615    0.86925720179421   -1.95297507595706
H           1.39488691796825    2.10390598684803   -1.21282752961344
O           1.05574605923361   -0.88553635787500   -1.81863934275618
H           1.32945147576492   -1.47182732021291   -2.52528327961613
H           0.29400870499143   -1.33935014513133   -1.37896906839936
O           2.34366439718683   -0.31302388343546    0.56388760758169
H           1.99793767696271   -0.63710513764372   -0.28512735323134
H           2.59194868425413    1.31306492325994    0.28927024390056
H           1.59594195265873   -0.36206237034461    1.18081242338709
N          -1.08750326284151    1.44948590659386    0.20206460507643
H          -1.58639900782459    2.29105125172657    0.46914677098232
H          -0.54242154768995    1.07478190767524    0.99974148008376
H          -1.77635580907526    0.67987061135683   -0.07346288587419
H          -0.42711256215465    1.64713438854163   -0.63015558986182
