    26
        -50.47398749  Gyration_radius:  2.43817515927 Dipole_moment: 2.201
 S          -1.91931992782558    0.08838491115125    0.08367290743490
O          -1.29429509528780   -0.06583883056034   -1.22898686684450
O          -1.13171320329114    0.96260729270112    0.93079296281411
O          -2.26303882143081   -1.17866904654771    0.68597312749332
O          -3.29221166072520    0.83480930266183   -0.16523327784762
H          -3.86604760179466    0.08931558538580   -0.29962844676217
H          -0.98548815817427   -2.05374948482468    1.22226236968632
O           2.45969921450364   -0.30739583788681   -0.69854862884488
H           1.94663222386349   -1.09521655362309   -0.99605275096247
O          -0.16105613754274   -2.54201372650135    1.45552438349939
H          -0.43649061287873   -3.31765591235594    1.94624955055438
O           0.55323864240592   -2.09528342717406   -1.19608253299644
H           0.41254222168582   -2.47307502504901   -0.31394481495120
H          -0.18454826296010   -1.47698225656590   -1.32939422632862
O           0.43217817038917    3.06754024200165    0.53195640245508
H          -0.28707323236772    2.44636000941301    0.76847685394172
H           1.09984435612907    2.95478750020145    1.21312698901660
O           1.22751440523482   -0.13964472445495    1.66784231861787
H           2.22167649829106   -0.22058260191486    0.25291827315158
H           0.38386768429619    0.31207707841225    1.48651109239516
H           0.97666391375607   -1.06431708428772    1.80724693483739
N           0.82523086879716    1.47812247084545   -1.59105893113558
H           0.76379327410671    2.24040770983535   -0.87446456595464
H           1.61474294679523    0.78402091754082   -1.29511964252497
H          -0.06845254464499    0.92533333697497   -1.54044904649299
H           0.97211084867172    1.84665817460383   -2.52359044423958
