    26
        -50.47105008  Gyration_radius:  2.42713716658 Dipole_moment: 5.038
 S           0.72290393089095    0.30474154878970   -1.78942885327825
O           1.59712443328025    0.70081058560581   -0.69765648793933
O          -0.14581065175470    1.34816508108893   -2.26236577859851
O           0.01627549678631   -0.93256924541852   -1.44576626755466
O           1.65694976986372   -0.07394552989439   -3.01194868983266
H           1.57408083037980    0.71930910035882   -3.52871025930597
H          -1.55298626023872   -0.65539221320230   -0.91998506094984
O          -1.28496188845098   -0.68781933997673    2.01910422254426
H          -1.93891646021606   -0.66606970343120    1.30329345956818
O          -2.43184432896817   -0.52245105725137   -0.50171458470072
H          -3.08027489953743   -0.85806613764431   -1.12190201789625
O           0.06111036225779    1.49529153575827    1.39026484511891
H          -0.82362494741092    0.18862423800231    1.95919611516442
H           0.66885191251340    1.27920079518942    0.66113585666229
O           2.71826702778871   -0.31075047952653    1.49203689066379
H           2.41396894330500    0.32846115175425    2.14306660935866
H           2.55799588789070    0.11446287292549    0.62621192294063
O          -1.84382986905377    2.23221273108126   -0.33798876355070
H          -2.35602571751704    1.41249976222246   -0.30108148413737
H          -0.66386542367856    1.98498191497490    0.94605294459575
H          -1.26133206915526    2.11956968353894   -1.10954671733728
N           0.69111102791647   -1.93915302575766    0.90268829100271
H           0.78047464898714   -2.94541093578094    0.98291521066134
H          -0.14710666718751   -1.55003383108274    1.46671494728491
H           1.56043431580274   -1.43956688789994    1.22740344257524
H           0.51103058553795   -1.64710261446085   -0.09198977301309
