    26
        -50.46163608  Gyration_radius:  2.55681755635 Dipole_moment: 2.243
 S          -2.30124525367388   -0.10603618711010   -0.34332879889120
O          -1.47692979342284   -0.73300607969128   -1.37552868465785
O          -1.79182625788482    1.20367027194314   -0.01030485879131
O          -2.51903849525607   -0.98516736134434    0.79019195161577
O          -3.73937997662043    0.11253917328691   -0.98807587748198
H          -4.15547285938952   -0.73072817894963   -0.84003579914424
H          -1.09615389319119   -1.29607395333846    1.45344726996520
O           1.62683010437584    1.78519293312708    0.53194822446674
H           1.94539223326787    2.68093999079485    0.64596806515683
O          -0.22308394940723   -1.40696983064804    1.91025828317829
H          -0.34223840459704   -2.12136114167393    2.53833618206690
O           2.15706692291965   -1.34012112698666   -1.98833564523786
H           1.55354589105973   -2.06999122410519   -2.14272114983482
H           2.31032797696939   -1.31988619273512   -1.00925441608238
O           2.19205940387240   -0.98078225404629    0.62723323386787
H           1.35542646312084   -1.22912071807909    1.05650850180108
H           2.24021059709439   -0.01770853256542    0.70035873855791
O          -0.31319245350453    1.34506621865248    2.17484343777695
H           0.90140989479047    1.65972266206771    1.22031405799146
H          -0.99998822149654    1.40452917309764    1.47761311401217
H          -0.23435826881296    0.39489260531646    2.35780213095049
N           0.58611745308717    0.77649695666976   -1.76985336422971
H           1.29841922043820    0.03120260832997   -2.01450420643357
H           0.45549695585623    1.44720772677426   -2.51843590140954
H          -0.32358438276027    0.24087500431465   -1.59159769079889
H           0.89418911316554    1.25461743689953   -0.89284679841512
