    26
        -50.44781401  Gyration_radius:  2.7774985519 Dipole_moment: 3.958
 S          -2.85034683578269    0.93614433893535   -0.58270566691141
O          -2.01222111341062    0.93300091437633   -1.78905040472352
O          -2.33427934835762    1.80249344076250    0.44878171097410
O          -3.10464183612731   -0.42150716474228   -0.12683686664675
O          -4.24299052550243    1.52643882096158   -1.04008117528964
H          -4.49929499455352    0.91038002569985   -1.71910160816496
H          -1.88182256514520   -1.14513179840332    0.54697370556496
O          -1.07615827384930   -1.54326585477286    0.98233136514772
H          -1.40873197657684   -2.20901222990472    1.58588785941384
O           3.01542171503429   -1.67054465612247    0.20445417314355
H           3.80142933044387   -1.77334450073378   -0.33329255744290
O          -0.00079361803045    0.94621472878509    1.19165544523130
H          -0.86258293109375    1.41496185885042    1.06810555140045
H          -0.25392816202635    0.02301237597625    1.37897084620445
O           0.40092145522562    0.64834983056344   -1.30663575083534
H          -0.59511456997967    0.80314038772481   -1.60989554560393
H           0.37130468958724    0.86346265855175   -0.30141554082371
O           0.69203517798261   -1.81361352984847   -1.05432068013090
H           0.55098384061528   -0.41342456042416   -1.32666285155288
H           1.57031091008592   -1.88536534810683   -0.60513490046579
H           0.02638063075418   -1.93017073849335   -0.34811245535571
N           2.96047583522813    0.92101686974791    0.97092356760745
H           2.01630447605232    1.06831778414009    1.31639318908192
H           3.01198075851136   -0.73209908153450    0.52814373107262
H           3.10503923586863    1.56936750462662    0.20623659423248
H           3.60031869511220    1.17117791329220    1.71438825482785
