    26
        -50.46725634  Gyration_radius:  2.60274649203 Dipole_moment: 3.992
 S           0.54003525724270    1.01417898944512    1.16284822088402
O           1.33312231895493    0.07587153400798    0.39444897950528
O          -0.32899008218467    0.33583934580324    2.11598267700030
O          -0.25015947633660    1.89386096927303    0.28948628866510
O           1.53239658963659    1.91707049344820    1.95448510207739
H           0.97793358722576    2.65862497101295    2.27178854590112
H          -1.24070625038594    0.98435059600148   -0.58851030834340
O           0.99534100719826   -2.60670788397827    0.19082811162158
H           1.38336332252381   -1.72537161107770    0.34366151804616
O          -1.81584918987491    0.36323562669589   -1.10720388008452
H          -2.58479451851760    0.87074809442857   -1.37198035264140
O          -0.30075117498181    3.82055071495883    2.06990143905094
H          -0.52043600863935    3.21848179128885    1.32998180459086
H          -0.01593674510884    4.64741287276064    1.67401208670049
O           1.08687210516427   -2.62565950524147   -2.47138045980774
H           0.96463470806565   -1.64452059299571   -2.50665621721039
H           1.93393790062761   -2.80164928060166   -2.88288318320884
O           0.77608296204812   -0.00243655090302   -2.24186648048426
H           1.11038734694081    0.12776689627743   -1.33348916553781
H           1.05548614864480   -2.75456701110159   -0.78287983789603
H          -0.17356324506766    0.15915349104437   -2.18143902156343
N          -1.32583694550653   -1.60851831512690    0.73156181257589
H          -0.99001814600755   -0.86491641815755    1.42247980879539
H          -2.04667847329022   -2.19802332875064    1.13244216463368
H          -1.66774584723379   -1.08801296036578   -0.09374804582400
H          -0.42812715116119   -2.16676293813826    0.47812838253892
