    26
        -50.46725613  Gyration_radius:  2.60244290757 Dipole_moment: 3.999
 S          -0.24949777618124    0.36154796197945    1.57545971337932
O          -1.52306844149600   -0.34317698910795    1.50367651528261
O          -0.09372835763678    1.30503020147357    0.48670910226652
O           0.86224698979883   -0.59923763162555    1.61949605525999
O          -0.21028456842972    1.17742726345952    2.90191661927359
H          -0.09612231152992    0.49677996374356    3.59586064976063
H           0.88988543066058   -1.41580974750740    0.23690298755729
O          -1.56874217685939    1.47535754733175   -1.78202520877279
H          -1.11572235396150    1.69217076281902   -0.94623369095998
O           0.85788891218286   -1.87179266732257   -0.64438147539315
H           1.27265825234837   -2.72656222513102   -0.51727811841525
O           0.54448352567248    1.51732373153278   -3.40329938191953
H           1.13957372165742    1.21238511066667   -2.67407861866573
H           0.87603765258353    2.37411323678943   -3.67498729373492
O           0.58442691665816   -0.98650639096151    4.19970233615618
H           0.78570592620467   -1.09980935333856    3.24848514072512
H           1.42699570490337   -0.87484044417172    4.64601649091153
O           1.87953688509624    0.72199978275991   -1.25482303765861
H          -0.87576961930818    1.54322400720897   -2.48117394700835
H           1.27961545765975    1.04305922812798   -0.55425496493183
H           1.80315174775689   -0.23975173777700   -1.22433404810527
N          -1.71009415128318   -0.98182723845930   -0.99593486735586
H          -2.47325698505338   -1.56909452813678   -1.31295211568103
H          -1.77225248853636   -0.77942693431533    0.05204890267020
H          -0.79101029087128   -1.43305103035001   -1.13902603479878
H          -1.72265760205691    0.00046810032963   -1.46149171983408
