    26
        -50.45918996  Gyration_radius:  2.47651664475 Dipole_moment: 8.320
 S           0.88613966562886   -0.63623101335638    1.95652596170512
O          -0.47787380863392   -0.90878405799037    2.42688266242817
O           1.22758217149516    0.75353490799602    1.98701582086141
O           1.08658359408726   -1.26567928413108    0.64944991443985
O           1.83990858549111   -1.39273784294076    2.96381617699661
H           1.46553344040431   -2.26716967487431    2.98063358462685
H          -0.10975541315005   -1.76172424836283   -0.28971841093769
O          -1.09991787349650    1.99510617583990   -0.77390463121078
H          -1.48297928987412    2.87275252845846   -0.78455500739451
O          -0.89792320767596   -1.99801248225710   -0.84962947003086
H          -0.78620463438920   -2.91581636267177   -1.09978059217419
O          -0.29997403040484    0.03573755738986   -2.68590371877869
H          -0.58229121121890   -0.73911456339108   -2.17819011572580
H          -0.63873657230878    0.80723694231440   -2.21208690887769
O           2.17962703720234    0.13962190611469   -1.47950779497701
H           1.94978322780617   -0.43287455018715   -0.73038401727705
H           1.43902094793637    0.06375145583102   -2.11002641725335
O           1.34423693775979    2.29647780363388   -0.18249283704080
H           1.81326452860964    1.64559219463477   -0.75979377150338
H          -0.10480924626933    2.13728344898398   -0.54268789224752
H           1.39678795856812    1.89651826287233    0.70608322001538
N          -2.05624324513129   -0.05142278823852    0.60264734137971
H          -1.94880965673661   -0.83745142605895   -0.06118964666191
H          -1.69258532671020    0.82735906834685    0.13232601461238
H          -3.02231244490809    0.05865164874823    0.89224796332349
H          -1.42805215408125   -0.32260561670277    1.44222259170250
