    26
        -50.46135318  Gyration_radius:  2.58152742066 Dipole_moment: 4.586
 S          -2.26115098380657    0.45871443794329    1.08438124030118
O          -2.34406822013024    0.08530932778322   -0.29971355906900
O          -1.14049914486009    1.36543872220554    1.35484255229538
O          -2.24164339596327   -0.67997443614462    1.99424315494192
O          -3.57499352367359    1.27876654713337    1.44350869249946
H          -3.50109492328441    1.38566100131359    2.38728999188558
H          -1.24613677287174   -1.56765631648431    1.19602970596966
O           2.59609983122425    0.86306931109243   -0.09869327853288
H           3.39077109357495    1.19632681078321    0.31928005636978
O          -0.56224668720635   -2.07720791509333    0.67208650781490
H          -0.88110596529636   -2.98103515543543    0.64237837799593
O           2.46485544595104   -0.79658061212079   -2.22266675876767
H           2.61812877184775   -0.24350035112758   -1.42578238484840
H           2.81508691063598   -0.29960754616390   -2.96349825880708
O           0.08430611573951    1.81787225232543   -0.92301702029760
H           1.01118954386785    1.78253386602176   -0.63949723494818
H          -0.45234760524603    1.79505731254308   -0.09785779929497
O           1.05796128562198   -0.07243448044971    1.77799648796502
H           2.04524110308898    0.47143787347906    0.63985211822574
H           0.26559749159834    0.50754572631133    1.76341266411268
H           0.72500180474763   -0.95438092291986    1.56906115998718
N          -0.16988992865448   -0.68934780573604   -1.65632829053205
H           0.77551380888029   -0.92068256471843   -2.02800512396071
H          -0.36916912341206   -1.22483823853341   -0.78159031729529
H          -0.17955630295496    0.35599973136700   -1.39612223718055
H          -0.92585061937748   -0.85648656531014   -2.31159045683281
