    26
        -50.47250213  Gyration_radius:  2.48721510143 Dipole_moment: 2.865
 S          -2.15940708143211    0.61705199443969    0.31542771737442
O          -1.23749584278903   -0.11162362861950    1.16570443583176
O          -2.36592675656334   -0.05219153555625   -0.96302534150410
O          -1.81047597866620    2.01501700567404    0.14817156519170
O          -3.55594103421715    0.59993800547400    1.06330602164988
H          -4.04630512482509    1.23244762395411    0.54960562603263
H          -0.32758250700288    2.21181605140890   -0.40164902015078
O           0.61846061994388    2.31787053587310   -0.68428715762046
H           0.66685587846770    3.16438682771561   -1.13076726984343
O           0.15464151317921   -2.41077760894103    0.90955071391995
H          -0.43727201158033   -1.70648323223974    1.23250094672604
O           2.45147723510074   -0.88752793231444    0.89040939712414
H           3.26821449419386   -0.98714515059173    1.37982675866127
H           1.96492805143974   -0.11695196410253    1.30510976182064
O           1.72742197297083   -0.00038450228646   -1.61488286708513
H           2.16256172815829   -0.33571870877205   -0.81034769456958
H           1.37060153703363    0.87400966728092   -1.36869805118999
O           1.05121544413869    1.11611429820493    1.79038024744299
H           0.15901971777014    0.71966050702901    1.72674765330761
H           1.05233958030530   -2.04171741969536    0.99974981700513
H           1.08120579250143    1.75929688774543    1.06702898305249
N          -0.36097729654283   -1.61451965155017   -1.54131868755843
H          -0.51834652499956   -2.25756409650099   -2.30850426898127
H          -0.16865352368125   -2.12017249674956   -0.62436950409021
H           0.47235368825913   -0.98064669545909   -1.72127331818593
H          -1.21291356115756   -1.00418478142523   -1.37439645435325
