    26
        -50.46819119  Gyration_radius:  2.43084672654 Dipole_moment: 3.472
 S           1.40620394540899   -1.20035213393214    0.66737439585806
O           0.45115765317324   -0.65213340338982    1.62492605100578
O           1.81411910987657   -0.20867742605711   -0.30620712616891
O           0.91775517623706   -2.43233417459682    0.07920231827974
O           2.70265807801582   -1.57988704120341    1.48579485235852
H           2.42740393104341   -2.38608248698985    1.90813089391972
H          -0.51740169173990   -2.33820245926822   -0.64015514274085
O          -1.00129701800451    1.86930904324305   -1.33372417911447
H          -0.24941768436156    2.26573018107039   -0.85516262627453
O          -1.38319315586407   -2.19068531020567   -1.10101907102712
H          -1.65212104477412   -3.04619724355148   -1.43880404286093
O          -0.64474048475798    1.85505351987244    2.29346516601249
H          -0.08146258972288    2.32993232041247    1.67079557501023
H          -0.17967445048035    1.02659305164462    2.45672987196618
O           1.22621392030833    2.32355556244980    0.16344646776842
H           1.48488734241078    1.38106000944447    0.04835585679082
H           1.99442840488191    2.84159011972539   -0.08101719460779
O           0.16457995716104   -0.23308938012992   -2.46275724318379
H          -0.59699949542432    1.22316326134258   -1.95950168543022
H           0.89176889108383   -0.27801573339733   -1.81729749560547
H          -0.42256206123483   -0.97057355498161   -2.24675492516903
N          -1.77699567561013    0.07318710564435    0.37465942814738
H          -2.02938689846619   -0.76374562574365   -0.16814093673487
H          -1.53345166127379    0.88583531735116   -0.30670123350890
H          -2.50353930522395    0.36759060281569    1.02018960982931
H          -0.90893318264780   -0.16262411154745    0.92417241548611
