    26
        -50.45553150  Gyration_radius:  2.45186332927 Dipole_moment: 4.707
 S          -1.45049406738139    0.23047696224535    1.33276495042071
O          -2.36263760281079    0.30165743705215    0.18730667084449
O          -0.32498151735215    1.11448962359148    1.18653757187102
O          -1.08981154168456   -1.14845106017125    1.61827248010719
O          -2.27631572000356    0.74003925678481    2.58441319262017
H          -2.92505710708282    0.05426092908320    2.70844397540342
H          -0.26333241917281   -1.95367287398961    0.54116418294184
O           1.43628345570144    0.98868652275372   -1.66839648546744
H           2.01422552621465    1.17519087153451   -2.40868758335262
O           0.18574086055612   -2.42581802308214   -0.21538336833810
H           0.13713214501248   -3.35958971425083   -0.00536555780758
O           2.01083107524901    0.36884118849645    2.17227123470843
H           1.10656454607803    0.61248637175826    1.87689546436355
H           2.45879509337698    1.19883205170400    2.34464548351718
O          -1.23770624451845    2.38056456294927   -1.30716447704811
H          -1.82344166875942    1.91438062132694   -0.69810401209341
H          -0.39242609967473    2.42472302515322   -0.85044882316059
O           2.50823964135872   -0.84798212312960   -0.16317271260415
H           1.81963772967607   -1.52979496054303   -0.16917108667799
H           1.92053702313202    0.34724283468095   -1.07418184303655
H           2.46570600633769   -0.45831267491087    0.73741248779963
N          -0.78853972727916   -0.43776062523248   -1.77088524052689
H          -1.23066373892165   -0.50732611240332   -2.68159457973594
H           0.01447400138795    0.25989769676258   -1.79776251788505
H          -1.49028126992665   -0.09660503132668   -1.04779847562048
H          -0.42247836952739   -1.34645674669456   -1.43201094125557
