    26
        -50.47071332  Gyration_radius:  2.41587718662 Dipole_moment: 4.154
 S           1.56489445849510   -0.90622871341330    0.91736225054206
O           1.21479678867882    0.27630743883244    1.66658155885188
O           2.04461639575708   -0.63925132196614   -0.42816422853957
O           0.48174825879189   -1.89215615946232    0.91401893113165
O           2.77361494703936   -1.57989240894293    1.68672347682911
H           3.09116908205004   -2.21304966130833    1.05210881132643
H          -0.73433257665599   -1.22699107352565    1.80416190397920
O          -1.46346129181828   -0.00356168932854   -2.06150684108407
H          -2.03161977658799   -0.19046709708469   -2.80953582231995
O          -1.30490368806006   -0.58907508298215    2.29236215520028
H          -0.66332454294322   -0.06350943544115    2.78357320762672
O           0.98439512738447    1.47471393648855   -1.73100592068436
H           0.17077814055546    1.06630914972103   -2.05554605505764
H           1.49663066891981    0.75607287658516   -1.31286176470280
O           0.24841742373992    2.51056140649151    0.58559730461055
H           0.72966094489126    1.84542654062813    1.11834841855383
H           0.60617097518029    2.38105189968623   -0.32484257141999
O           0.12568011889433   -2.02147190646624   -1.67199075799752
H           0.99252670412863   -1.59128217041213   -1.72733289150509
H           0.05850380136441   -2.20122317636243   -0.71230667260173
H          -0.89955907192592   -0.82172696849594   -1.93015650485109
N          -1.92872546479704    1.12821966883045    0.38208219114924
H          -1.79352643956040    0.39752215384367    1.14437090343679
H          -1.08102244686566    1.81011966468600    0.47258429413406
H          -1.87306498104620    0.67784182014452   -0.55155331032184
H          -2.81006354557747    1.61574029925009    0.49692795373160
