    26
        -50.46725637  Gyration_radius:  2.602689443 Dipole_moment: 3.999
 S          -0.76067006713892    1.22336583008818   -0.77382833315377
O          -0.44879897591587    0.57563351922042   -2.04144412176349
O           0.40677999375236    1.33099781082021    0.07782501954491
O          -1.85801738341954    0.51681112801358   -0.09721895924686
O          -1.25301028695857    2.67198326850674   -1.06676823100288
H          -2.14753682440192    2.54729134392342   -1.44396570085752
H          -1.35994668092557   -0.96333522227888    0.27662931681087
O          -0.98345818598777   -1.85701005213921    0.48948401018857
H          -1.73149066199069   -2.45310814308301    0.55214824119290
O           2.86127607035770   -0.80484611752243    2.31249922724125
H           3.33482564808387   -0.27195287095002    2.95253148588647
O          -3.68990270511564    1.74653489634000   -1.51687117143256
H          -3.20044289440928    1.09153345444049   -0.97867200309570
H          -4.35552284422335    2.13044190567851   -0.94142414631882
O           2.78818961555383    0.06563851844035   -0.20437945280052
H           2.10478772441889    0.75337659887498   -0.10098925618927
H           2.95623811812926   -0.27630082913977    0.70568999000445
O           0.30107168074586   -0.11564740932019    2.34984896723072
H           1.90265801208273   -0.59483190957994    2.43779042316880
H           0.29253237354354    0.54142798438689    1.62730357265045
H          -0.19285813720342   -0.86950438737722    2.00441803822321
N           1.01604319823882   -1.43623552281631   -1.33608496469012
H           1.86240347631767   -0.92874244323522   -0.88024185206997
H           0.43801736299946   -0.64944092613846   -1.77181330845478
H           1.30271007413663   -2.12104045360146   -2.02649665886109
H           0.41412230932880   -1.85303998156452   -0.60597016219334
