    26
        -50.47250190  Gyration_radius:  2.4872063819 Dipole_moment: 2.857
 S           1.78417238711703   -1.34330374101203    0.39440700719861
O           0.96468495610506   -1.16173389646491   -0.78850428227707
O           0.99611316375609   -1.77829717800338    1.54097975625291
O           2.61188363268428   -0.19384581753231    0.70698914138219
O           2.78431653445408   -2.52574538591364    0.06059717882461
H           3.39152099427087   -2.46227931459950    0.78975123831524
H           1.76232144471402    1.14562173442709    0.86200928829459
O          -1.66359934514909   -1.45777466575385   -1.33087035646563
H          -0.69094491627260   -1.52293864378935   -1.35124906910938
O           1.22622235254671    1.98100746915965    0.89212289360060
H           1.71629606163048    2.58880590336190    1.44779306558813
O          -1.46342185532718    1.52400960717033    1.06221043976458
H          -1.72053126661318    1.57162177060233    0.12377935836926
H          -0.51560773760769    1.75578217680760    1.08115023540709
O          -1.78929278732952    1.27514936952446   -1.66179227598204
H          -2.17613674976185    1.79857126284831   -2.36385280078429
H          -0.79692406838032    1.32363745769604   -1.78605731440942
O           0.81253185052166    1.31436682660947   -1.77916924128182
H          -1.85680141959335   -0.53887888282445   -1.59259262699899
H           1.06904999169212    1.81028098990050   -0.98785331684603
H           0.98976375110756    0.38009029393995   -1.54895108759447
N          -1.50830419089250   -1.10816826889428    1.26918528981987
H          -0.50930240392065   -1.41739654929038    1.44960898432877
H          -1.72585756857759   -1.36702163517886    0.25961322762246
H          -2.14802145582598   -1.54350570012688    1.92346367875883
H          -1.54413136533724   -0.04805519264121    1.32723157820546
