    26
        -50.45792508  Gyration_radius:  2.59223615478 Dipole_moment: 3.524
 S          -2.09820208467671    0.53825013052476   -0.61251511097605
O          -1.44704910491983   -0.12388612965427    0.50213704893282
O          -1.21249468205823    0.60847365455378   -1.77148389773863
O          -2.70883124200183    1.80544623019235   -0.28527172874063
O          -3.29317515825003   -0.43216276521835   -1.03095493423443
H          -3.85095583031196    0.13738136430309   -1.55159795253929
H          -1.37496167176661    2.46944249922670    0.39808733753225
O           1.84260910277336    1.82740028032012    0.34639066848201
H           2.38378391718245    2.56824170796691    0.07085747133686
O           0.22504700563343   -2.21841117876088    0.85176896791713
H          -0.66701601556789   -1.85246726331636    0.73173912229500
O          -0.57241478563480    2.72777430259881    0.90493725197910
H           0.93504991121338    2.19503049843644    0.49911415434970
H          -0.78403437441628    2.55110153882112    1.82499532275460
O           1.88109374340220   -3.01079781049168   -1.35734269503120
H           2.04784453684387   -3.91865817499029   -1.61165530643435
H           1.33916009077761   -3.04373594977902   -0.55635349463734
O           0.62154038657075    0.03878084024328    2.31078970138586
H          -0.20477916075111    0.14186891048369    1.80910914105793
H           0.55853391210672   -1.74133674231703    1.63402804969993
H           1.25393829705110    0.64014835692902    1.90356635273421
N           1.04802672666496   -0.38059924377423   -1.01694403418902
H           1.61134720991045   -0.87951212561395   -1.70339447079970
H           0.13667647953486   -0.00258441037217   -1.43083674958994
H           0.78232803468804   -1.06666006289392   -0.27323175266531
H           1.54693476620497    0.42147156245817   -0.58593846278455
