    26
        -50.45792512  Gyration_radius:  2.59203409137 Dipole_moment: 3.529
 S          -2.08902994064400    0.42123399934413    0.72378815447982
O          -2.13351738641137   -0.08049194317680   -0.64697637821732
O          -0.73443126534974    0.77120339018825    1.10766486185350
O          -2.77900852759553   -0.43051043655217    1.66406803286328
O          -2.88651850811342    1.80268438303475    0.71188454892694
H          -3.79512493372485    1.51872097694810    0.73205771406647
H          -1.61978761005603   -1.58752440085396    1.73306448688548
O           1.41287574241504    1.92272831079045   -0.06144500301956
H           0.55978298405570    1.98333375151891    0.39977211624913
O           0.94444247204414   -2.43906756933280   -0.12873743526839
H           0.93158960474126   -3.35330315881822   -0.41449082683204
O          -0.81886179341140   -2.15327988492349    1.81132051831571
H           0.23868830055393   -2.36001554411244    0.56253285590473
H          -0.37916978748806   -1.86340233173324    2.61452096370507
O           1.61676371486062    1.81067913338185   -2.92384430476648
H           1.89953950324654    2.53994536625688   -3.47623433969443
H           1.69364592894289    2.11238578884166   -2.00761515211712
O           1.79294938643826   -0.21571530962556    1.57097631607495
H           1.95438009332127    1.38033232988636    0.54127649736030
H           0.85516188402948    0.03706831136541    1.61331804721124
H           1.81950086504255   -1.05106301796714    1.09259003279106
N           0.31128453669665   -0.16484531856008   -1.46732076890302
H           0.49620186892837    0.00482484620430   -2.45447492835092
H          -0.73129737190178   -0.11682261719996   -1.23138121076791
H           0.65927278726385   -1.08667603560728   -1.13997539165924
H           0.78066744210932    0.59757699071521   -0.92633937702739
