    26
        -50.45601089  Gyration_radius:  2.60918961613 Dipole_moment: 4.598
 S          -1.90008180128316   -0.64964593262970    0.60281568851479
O          -2.19443482021010   -0.44240225306676   -0.81262105540164
O          -1.28606159167078    0.50826828483766    1.21220759959814
O          -1.12599361958241   -1.86484772528058    0.81036779070582
O          -3.29153934267766   -0.86649248792720    1.31944352112087
H          -3.66161565186125   -1.59051908943785    0.82447433479993
H           0.23971172214985   -1.86316807931319   -0.15465031001863
O           0.54717688523214    2.32214939162287    0.28080371177603
H          -0.31104966744484    2.15981938903041    0.70148998896322
O           1.12129845615339   -1.73366443397838   -0.57430802902558
H           1.65638384458775   -2.45400491640781   -0.22352948131187
O           1.21413244798013   -2.86199826547701    2.03859319349437
H           0.28993669104500   -2.70905027878134    1.79774150428051
H           1.50104845455951   -2.06286036834859    2.49036546507122
O           0.75533037177103    3.03337430004464   -2.52984752600994
H           0.90568866113463    3.89811001807670   -2.91309721681846
H           0.78166334410000    3.14638664519539   -1.57061411646117
O           1.37807229313708    0.11067657024598    1.54431961235297
H           0.41125538655110    0.12222741251984    1.66101060897857
H           1.53924582564533   -0.53666866680439    0.83939045048689
H           1.15909678558208    1.77196521458494    0.81383616640234
N           0.06153541193943    0.50741852666439   -1.65713132164631
H           0.13742429355363    0.97404333352681   -2.56065679413974
H           0.69519292912203   -0.29978177881505   -1.57486615139106
H           0.30149011241128    1.22216407053920   -0.91789465380212
H          -0.92490738181489    0.15850111024876   -1.44764297050661
