    26
        -50.46111924  Gyration_radius:  2.71332210463 Dipole_moment: 3.931
 S          -2.39136248368503    0.26749267778826    0.53785633909295
O          -2.05082160755361    0.64011735625961   -0.83263580711630
O          -1.44043303218972    0.77609333278757    1.50258094295346
O          -2.60883249611180   -1.16614895034615    0.65886899146939
O          -3.77708136881889    0.96599035863126    0.85423586206479
H          -4.33380149308510    0.61547318189554    0.16641403866674
H          -1.39336679263652   -2.12863718964621    0.31153765416737
O           1.19314266386491    0.99296027777303    1.22630349456891
H           0.25988132540606    1.25057578318024    1.36867361783489
O          -0.57408359801825   -2.64863230334903    0.08503713922372
H          -0.87495600584274   -3.53109796901359   -0.13502394126603
O           2.25308741850076    0.51997937151910   -2.73780281790951
H           2.47543419676408    1.23034703894764   -2.09856109890571
H           3.08296548151513    0.11190847459179   -2.98741854527873
O           2.67282495345740    2.27372218277181   -0.72327443957053
H           2.29352540276168    3.15129390942071   -0.79429113214846
H           2.28120480419619    1.87257396474786    0.07149973883611
O           0.27616397167548   -1.22852920008406    2.40950008782530
H           1.29080811964807    0.23104333226056    1.82974207000005
H          -0.51016540186685   -0.66350416807908    2.34655215636019
H           0.12315451303413   -1.94750170834427    1.78354205856537
N           0.36250982452529   -0.33029199136109   -0.98938536626053
H           0.22201244666266   -1.33231250954140   -0.78275341963845
H          -0.59820541992540    0.10504053952396   -1.09237639364578
H           0.80305043136586    0.13535654042942   -0.15961082651400
H           0.96334415633561   -0.16331234273993   -1.81921039337502
