    26
        -50.44710463  Gyration_radius:  2.53859414424 Dipole_moment: 5.503
 S          -0.26827433269639    2.23532436593708    1.39466432634993
O           0.63362225720105    2.55187456192307    0.31986413844352
O           0.33419293921865    1.49803434434449    2.49036168156362
O          -1.47696059443563    1.54947593124770    0.90178695051655
O          -0.77178459326060    3.60335063619795    2.00917078353339
H          -1.10033333890259    3.32637989959358    2.85820707458690
H          -1.56042941725062    0.13556986853478    1.04714393581583
O           1.89058894473264    0.19819364651485   -0.77801951852166
H           2.21723994513738    1.03541219911975   -0.43244869773732
O          -1.50281045886156   -1.56765854379060   -1.41812744016184
H          -2.09218172544869   -2.25036231720529   -1.74032769266272
O          -1.45366740713263   -0.91522265762301    1.05190559126706
H          -1.55642130114550   -1.19798507928601    0.07888568959923
H          -0.40287854755812   -1.01194905923839    1.28150224452798
O           0.97978117524238   -0.81908552084882    1.50613512384169
H           0.89534055244847    0.01374090558335    2.03265887379194
H           1.38879950984932   -0.53394390513741    0.65110223169333
O          -0.32844897054882    1.22131340543581   -1.80706878200651
H          -0.16407627027821    1.88791647150221   -1.11396306554026
H           1.09809901245705    0.46950006700000   -1.30220553495763
H          -1.15553421994246    0.78672294321150   -1.58309719603478
N           0.97128332909991   -2.51494291577708   -1.49645847981856
H           1.54910108639836   -1.68295160152327   -1.41962016896782
H           1.16477590607410   -3.08774805775837   -0.68360530988012
H          -0.56294322176840   -1.90799959733561   -1.53048117322023
H           1.27391973137041   -3.02295999062723   -2.31796558602692
