    26
        -50.44710492  Gyration_radius:  2.5383911082 Dipole_moment: 5.504
 S          -2.56774844343800    0.12926365109025    0.63479899869068
O          -1.85309711074548    0.56722100272618    1.80364367354530
O          -2.57931268020733   -1.30898587637515    0.43860473638757
O          -2.09491250485209    0.82117794995061   -0.57822852832919
O          -4.07924032703234    0.56083831283306    0.81369127968309
H          -4.51819611652710   -0.00316799298345    0.18543530485736
H          -1.20107705486392    0.13178805918358   -1.44641432062769
O           1.61583164465945    1.12525079975928   -1.68734490479278
H           2.14780084596138    1.36954359971864   -2.44532720799873
O           0.88200439636078   -0.35231272775932    1.82335048309794
H           0.15212218125122   -0.40311015118089    2.44926364011502
O          -0.11214366858646   -1.96917496657071   -0.04174378419328
H           0.34657051625515   -1.44198033071822    0.65928080863649
H          -1.06909823820548   -1.93451392173785    0.20532673384042
O          -0.42359751841230   -0.39527061633997   -1.92920496511111
H           0.37509372749119    0.23636757225033   -1.91533683266515
H          -0.21175577399288   -1.16058803649491   -1.19702300880719
O           0.20014587899734    2.02167474008152    0.86007065226582
H           0.14083998470004    2.10416920285786   -0.09535776753381
H          -0.67696026731259    1.73056730060272    1.17258668336705
H           0.80589511968043    0.56708992615274    1.46913648768887
N           3.02516215377472   -0.55493254954118   -0.19914057446239
H           4.00124404309615   -0.35266577076329   -0.02331153814831
H           2.96008848824485   -1.49874264385634   -0.56148021329181
H           2.54342244106335   -0.54484675655553    0.69517660831554
H           2.19091826263483    0.55534025366225   -1.09045243454602
