    26
        -50.46619297  Gyration_radius:  2.55629969952 Dipole_moment: 3.278
 S          -1.86620687882574   -0.60689062436461    1.20447563835141
O          -1.80623245184179    0.67612849835908    0.53503677995593
O          -1.25936476696197   -0.63956893523429    2.51362912136368
O          -1.35847342972065   -1.67662813631633    0.33524997807312
O          -3.40319828895429   -0.92773389315798    1.43404339833484
H          -3.37694426027604   -1.31435611612419    2.30240282220799
H           0.22252020152398   -1.95984732406421    0.22196801173704
O           0.59202603377413    1.79028114419316    0.45034941082890
H          -0.36570664377353    1.60565482318059    0.54564380606401
O           1.20072976500948   -2.05585898648555    0.08391576577489
H           1.37964079609094   -2.99677241130775    0.10577538186361
O          -1.64534899402413   -0.40553670914217   -1.94263616391762
H          -1.63834904022582   -1.06740556364641   -1.21800133557477
H          -2.03761171974713    0.36480644606773   -1.51194051006771
O           2.19084992633529    2.55915362708712   -1.80903949481062
H           1.71941558914412    2.62255478651616   -0.96637701959790
H           2.62871390875406    3.40059928705147   -1.93973839787244
O           1.32720138293963   -0.09564581867038    2.12862987413579
H           0.42079306854605   -0.28165854494320    2.44591139609905
H           1.55040781691833   -0.83646130512284    1.54857753718574
H           1.00595011643432    1.26143843421003    1.17721535525834
N           0.92206109945632    0.10370241803023   -1.55838153770569
H          -0.05894211933554   -0.08363216481272   -1.91382768411725
H           1.30011163429032   -0.76826737988288   -1.15773028462900
H           1.53235454788870    0.52366883578209   -2.25629905084586
H           0.82360269655293    0.80827559277499   -0.75885278796254
