    26
        -50.46619276  Gyration_radius:  2.55623540832 Dipole_moment: 3.274
 S          -1.93096889420345   -0.60328884854463    1.09911828233964
O          -1.62391408536045   -0.01948520988007    2.38291510702235
O          -0.99420396413212   -1.61105135482316    0.64656793124343
O          -2.14216545278255    0.41890526529883    0.06561865812363
O          -3.32895814438866   -1.33176001939970    1.28053550872813
H          -3.64484268905267   -0.91623194516550    2.07532862877226
H          -1.10971234021973    1.64336264158747   -0.09969727206623
O          -0.41341088392043    2.33310867933855   -0.25656198383728
H          -0.88316585458969    3.15759517293505   -0.38837727591356
O           1.55303955084881   -0.90075075431683    0.73244570740420
H           0.69649035800389   -1.37191929697252    0.80100133884252
O          -1.31318235475374   -1.00882288806744   -1.97424849094529
H          -1.16116384531544   -1.78638159368889   -1.42185518576091
H          -1.80624802218429   -0.41606491649722   -1.36701418538816
O           3.48927249017223   -0.73112661081404   -1.38261812550808
H           3.08617412269671   -0.97646461469525   -0.53781078042675
H           4.37346640782391   -1.09852603548040   -1.37896194446998
O           0.73129854306137    1.20317990847787    2.07871828871853
H           0.48501081846528    1.83040552702745    1.38516897678164
H          -0.10961175787141    0.79424358185270    2.36591366388984
H           1.45477314280636   -0.14353118014251    1.36193892227607
N           0.92689865957262    0.32487662935813   -1.52476659181067
H           1.73129000806983    0.31732170127331   -2.14832267314932
H           1.22244531646929   -0.16619831014748   -0.62101952831996
H           0.61464988608755    1.27508781910352   -1.27300461455311
H           0.09673900449885   -0.21648335753529   -1.90101237186524
