    26
        -50.46364177  Gyration_radius:  2.49485423554 Dipole_moment: 3.031
 S          -1.74451345220331    1.22289100062409   -0.17815386228951
O          -1.45947291616094   -0.18921521923578    0.07195303345681
O          -1.14032579550766    1.67629841957268   -1.41290610965387
O          -1.41150613778403    2.06639266472774    0.95278072681170
O          -3.31259889882229    1.29935920298427   -0.36409495091529
H          -3.44766342620919    2.22788710159664   -0.51928787370052
H           0.16117835454074    2.02838761348156    1.21600977642086
O           1.14044708545350    1.91597734832170    1.34310494947223
H           1.41620157903530    2.63992017961564    1.90805314215444
O           1.62448439309005   -2.38896440195542    0.58911894558099
H           2.51112386878318   -2.51675553966786    0.92703514921484
O          -1.10520126363350   -2.93138106573965   -0.70210327277593
H          -1.56956262172754   -2.17174451713852   -0.33296955723090
H          -0.43810152001906   -3.17945322087265   -0.05577390034941
O           1.50775511479564    1.62569088341036   -1.36255607177241
H           1.62738872133077    1.79495271024522   -0.41147328710235
H           0.57274432030589    1.86495236782150   -1.53408407956966
O           0.33029343038936   -0.63985604771113    2.04698021195434
H           0.79051752548916    0.21313540404008    1.99573793636270
H          -0.46900475594699   -0.51541744621773    1.50388816641648
H           1.15287275287534   -1.80487907072639    1.24328583928465
N           0.67050266465125   -0.85702271690811   -1.40675991108555
H           0.48258565668380   -1.29723891272931   -2.30199072384595
H          -0.24436712444486   -0.63452941543183   -0.94065609472086
H           1.17194958367127   -1.52195651188198   -0.77299834256174
H           1.18227287133681    0.07256916975558   -1.50213985957845
