    26
        -50.46551657  Gyration_radius:  2.57204973535 Dipole_moment: 5.390
 S          -2.28799678830677   -0.34399861109485    0.06213676827212
O          -1.68126056297396   -0.62648923868256    1.34276365737993
O          -1.51691908116422   -0.89632782312428   -1.05330638225231
O          -2.57678560398667    1.06335717857066   -0.15080773226321
O          -3.68063525991599   -1.09406395246859    0.04831852283287
H          -4.10534869575709   -0.73064103497876   -0.72190436868418
H          -1.34554946398578    2.06618163722028    0.02686081267243
O          -0.51296082294422    2.60743131464038    0.07213477681332
H          -0.78629979859700    3.52264987519901   -0.00412438007323
O           1.99829377315527   -0.69761707462039    0.82009622387266
H           1.44500823036823   -1.51298602972294    0.83375304001179
O           0.05367751266290   -2.51134932776646    0.61403074213148
H          -0.60082685911898   -1.95876053846483    1.08212053730210
H          -0.26512296357349   -2.51792179273888   -0.29415032086544
O           3.27585196051028   -0.34812149080555   -1.73134699695072
H           4.10342689677290   -0.74156794050613   -2.00922772062502
H           3.16701820954265   -0.56817305421842   -0.79550012688466
O           0.38809205042076    0.92751239115296    2.18185625022510
H          -0.40080014881433    0.36509837934293    2.08843197877666
H           1.61852967384592   -0.12705831247571    1.52587194448457
H           0.20340741044803    1.70891029812505    1.64429132203106
N           0.70001992430644    0.49852752583089   -1.14232918073717
H           1.26540417196389    0.05100501376461   -0.34908743595288
H          -0.18233598673685   -0.07132105779099   -1.25242370000972
H           0.43327061715590    1.45733294101173   -0.86633633134145
H           1.29084158472636    0.47839071459673   -1.97212193016028
