    26
        -50.46203106  Gyration_radius:  2.57093032308 Dipole_moment: 3.189
 S          -2.01915803733944    0.33829002720493    1.41276014686736
O          -1.65420086939795   -1.06146156598682    1.31228100315135
O          -2.43881244795492    0.90914027759818    0.13971423974086
O          -0.97641472700476    1.13275792924237    2.04354539323275
O          -3.28652089984086    0.39932522931207    2.36109577518490
H          -3.60860492019378    1.28629908614194    2.23388916420989
H           0.22615833930094    1.64289247955552    1.09181431019533
O           0.87672871218263    1.91630237817065    0.39595202634224
H           0.68874850055582    2.83823840186186    0.21500411405555
O          -0.33541483940909   -2.39274666944588   -0.60665668636788
H          -0.99665253906693   -2.17528026203783    0.07573376047359
O           1.59463533525244    0.02628625784687   -3.11814471464937
H           2.14050657574400   -0.41745685207953   -3.76692379095246
H           2.01161364358733   -0.13998188139706   -2.25088587869248
O           2.47368741100551   -0.23233887477160   -0.51256111872390
H           2.01513381405336   -0.67393876405712    0.22689050964798
H           2.51467854074350    0.69113154229816   -0.24473193038203
O           0.99450216210708   -1.02182987928651    1.66486645099593
H           1.18412922498309   -0.33533412138798    2.30759280699294
H           0.01806638464145   -1.06059140802022    1.62750690017526
H           0.46913119107367   -2.60924293550126   -0.12626879439324
N          -0.38770837668396    0.19283017747031   -1.31614098856549
H          -0.26691416564081   -0.83817887764718   -1.12376279254265
H           0.30348208822661    0.74593703111539   -0.76596376874648
H          -0.20709292894349    0.35253769810123   -2.31013257481873
H          -1.33370717198036    0.48641357573595   -0.96647357240498
