    26
        -50.46944020  Gyration_radius:  2.47838046092 Dipole_moment: 4.352
 S          -0.06604899821368    2.06395490438435    0.17411698938051
O          -0.76948395479278    2.58711585195910   -0.97053481560008
O           1.17009264630771    1.37142917839597   -0.16224077442795
O          -0.91373321564515    1.25233202655553    1.04156464350789
O           0.38172134704123    3.32164991936208    1.03373873520115
H          -0.30936665274075    3.94965616784704    0.85145660730575
H          -1.87136293482872    0.04014756976536    0.35231377253266
O          -2.19369966064265   -0.68721684155390   -0.22239228940895
H          -2.14377194496713   -0.30684316363272   -1.13197889349858
O           1.01537428092332   -2.16643821122834    2.09368283144116
H           0.49187781437365   -2.44176970905523    2.84790738679576
O          -1.41181018717751    0.47298808115325   -2.46952076483800
H          -1.26734692301884    1.34390071648289   -2.04851568940812
H          -0.52885041260183    0.11601100495766   -2.62451823475407
O           1.23828513273600   -0.49386127737639   -1.93615459481678
H           1.22055966706829    0.25750819656546   -1.28304238931686
H           2.12534213193657   -0.50108241195839   -2.29909967990208
O           1.21017363650875    0.43244088615168    2.35739007238085
H           1.73136026053077    0.78584951625668    1.62458943896200
H           0.30584888108003    0.71489418609099    2.11785420775270
H           1.18051832079700   -1.19195701728577    2.22779369475025
N          -0.11097374749707   -2.21008004150589   -0.31899927497673
H          -0.28939957036903   -3.14290783008146   -0.67395818653612
H           0.50105492672397   -1.67948262613551   -0.97261143177196
H          -1.04057418073268   -1.63840127841899   -0.24113208140352
H           0.34421333717830   -2.24983777777128    0.63229074059845
