    26
        -50.46829474  Gyration_radius:  2.5304080964 Dipole_moment: 2.934
 S           1.57940404735151    1.36756242054999   -0.47270539572031
O           1.73024050369951    0.74274042311647    0.82600409244118
O           0.22593470784248    1.85493867952577   -0.69957121903895
O           2.04361911939685    0.54251388344237   -1.57249919591239
O           2.51316787363929    2.64601424235970   -0.45239264667032
H           2.42902129495881    2.93371862312333   -1.35437570535450
H           1.26621171566666   -0.81627026872696   -1.80427460855568
O           0.81133538766599   -1.69562094346964   -1.91242028839086
H           1.34196931425335   -2.18196490341979   -2.54565461651148
O          -1.47108900171054   -0.66813892097155    2.05771934958237
H          -1.02009540024712    0.07764631170925    2.50695677498172
O           0.04980608900022    1.43266675989016    2.75334124094825
H           0.58889876152069    1.47143520175964    3.54493023818600
H           0.67481956177535    1.27054237973992    2.01343072474475
O          -1.86914705476005   -1.58931223790799   -1.91081141167576
H          -2.09511466517564   -2.40007867313305   -1.45003138445161
H          -0.89555411517191   -1.61098277458041   -2.03074974622047
O           0.68043453951947   -1.74400541027641    0.88254095536168
H           1.19047112781181   -0.91665681730946    0.95445338196404
H          -0.73819974775108   -1.24050106264920    1.73942514309817
H           0.69834356316576   -1.96131837378074   -0.05980737296902
N          -1.96775322559712    0.50579627437123   -0.20949457046518
H          -1.09475707911568    1.07449799488263   -0.39566538354765
H          -2.77983318139973    1.11206110299112   -0.22899912303711
H          -2.03701099257700   -0.24180332441099   -0.93703140007822
H          -1.85512313377150    0.03451941318464    0.75768217730206
