    26
        -50.46829465  Gyration_radius:  2.53045717847 Dipole_moment: 2.934
 S          -2.12580385838568    0.19027613746444    0.18224410945622
O          -1.40084041673751    1.41415037836449   -0.12983762649171
O          -1.51996049153624   -0.54667635170029    1.27297672811768
O          -2.35801464608771   -0.61265474246400   -1.00401993927943
O          -3.55297781976322    0.63997114112880    0.69949619536667
H          -3.91044260732255    1.02140475136617   -0.09435134902626
H          -1.07080911604218   -1.19356430019334   -1.71822225432534
O          -0.26328904927072   -1.60367743042135   -2.13238988873289
H          -0.59661491544735   -2.23322593655896   -2.77402611133880
O           2.12108893032738    0.11182033556527    1.52719706869724
H           1.49019635689773    0.37895522035813    2.22865192623554
O          -0.01890788134555    0.78083082968717    3.00473015443988
H          -0.63588937475265    0.36463537175183    2.36406441286149
H          -0.22996907703447    0.39522927111589    3.85648495490254
O           1.77575111802985    0.08844235402032   -2.55205203597092
H           2.53316099321964   -0.47184640920771   -2.36995042058448
H           0.99079174353750   -0.49862798233843   -2.50854006884872
O           0.68423695967726   -1.89200669084101    0.48454006005976
H          -0.14827017590395   -1.55160607804465    0.85978102590098
H           0.51351692241755   -1.96360645363014   -0.46486070923038
H           1.76861865417779   -0.74336231752543    1.19473883206116
N           1.20039032419360    1.60528179846416   -0.39291889131386
H           0.15028478455251    1.55344164408773   -0.27124451563733
H           1.45225491272395    1.14079801566375   -1.29504701429906
H           1.49681023149371    2.57454862491376   -0.38489010472021
H           1.65468750839738    1.05106884897420    0.41744545169837
