    26
        -50.46829432  Gyration_radius:  2.53027683851 Dipole_moment: 2.905
 S           0.22932154746820    1.72698856050895    1.24594626600796
O           0.12814547300267    1.98359751936049   -0.18399728458325
O           1.16650030083592    0.66431781694110    1.55030697656936
O          -1.07627491494873    1.54226315303196    1.85181050383010
O           0.83480024874594    3.04021268718181    1.89067150918401
H           0.12151785991258    3.64971876061819    1.73856679503456
H          -1.89460770908152    0.27337763398989    1.37540519646988
O          -2.38281986000207   -0.55436481136356    1.11440145537988
H          -3.12278716756728   -0.61686978310538    1.72071133649711
O           1.50965951385972   -1.72862103997217   -1.26288766609982
H           2.25071683396208   -1.16009860686673   -0.96408765500285
O          -2.50215654064914   -1.01732408218208   -1.52587182926625
H          -2.40892945328547   -1.97188872161872   -1.55703579583389
H          -2.56206075790308   -0.78449899390108   -0.57476886856008
O           3.09749650623159    0.15075069020801   -0.18793615208415
H           3.86568938839710   -0.04192843393698    0.35190114555203
H           2.39712748134976    0.43642737310790    0.43829245584528
O           0.13376596754024   -1.77563490271096    1.03497194902965
H           1.03324200859986   -1.96310462563339   -0.43613091356724
H           0.57136088423958   -0.96939477323921    1.36412165509279
H          -0.81173243079254   -1.57863016750208    1.08640173129211
N          -0.11955163305395    0.14566074464619   -2.03665011451237
H           0.04729376157610    0.53260582477545   -2.95850385757137
H           0.58250824819042   -0.64564346048337   -1.81143912929924
H           0.00012309980840    0.90195849983099   -1.30595529529625
H          -1.08834865641657   -0.23987687167922   -1.95824441412986
