    26
        -50.47398733  Gyration_radius:  2.43822629199 Dipole_moment: 2.211
 S          -0.75277103554649   -0.01373683525891    1.76810368451944
O          -1.61946932390588   -0.38010726687840    0.64916149109460
O           0.15609107720916    1.05076217164188    1.38996926712602
O          -0.11443423359591   -1.15956285403309    2.37289018665768
O          -1.70048401078655    0.59094870354555    2.88175614264626
H          -1.91678296286617   -0.19847581901125    3.36445308209976
H           1.07484896472874   -1.83597708577556    1.47036438495528
O           0.03152057344771    3.13427706625513   -0.24566547045779
H           0.06511592458317    2.52436278263462    0.51998821265025
O           1.72665825946148   -2.22015420260831    0.83793378809010
H           2.19605502032176   -2.90466487247864    1.31693927660896
O          -0.40302647619548   -2.24891008026146   -0.95142244513313
H           0.39278891963298   -2.45714875195247   -0.43753544831153
H          -0.95681516098142   -1.71420358812816   -0.35835281878900
O           0.48357961704064   -0.28587531688296   -2.51328272744913
H           0.16175745338131   -1.14600381573214   -2.15407308912285
H           1.20779153477395   -0.03269596600926   -1.89607225015265
O           2.02578520519999    0.25601135019112   -0.39835162708757
H           0.93789739220997    3.20391760285807   -0.55551079235796
H           1.41900099735351    0.61348059496872    0.27438983329594
H           2.22711236150856   -0.63784571332754   -0.08571209262769
N          -1.35455304600498    1.19021401033860   -1.46520451652440
H          -0.61913189199881    0.61639212894354   -2.03330058444196
H          -2.19052271013495    1.37893069297832   -2.00608866631062
H          -1.57627659862304    0.60406430676309   -0.62020605127210
H          -0.90173585020766    2.07200077721723   -1.12517076971598
