    26
        -50.44926350  Gyration_radius:  2.43972458279 Dipole_moment: 5.015
 S          -1.84204131952526    0.71795002320370    0.90109989506655
O          -2.45089090062668   -0.04282893960366   -0.15691679950682
O          -1.96893704736715    2.13591086043616    0.82326729654029
O          -0.33310494655512    0.35294894894772    0.95579901435178
O          -2.34994558453173    0.18770486046043    2.25764041411226
H          -2.15187375058374   -0.79075469541130    2.18364285105452
H           0.21031153285430    1.19937506288990    0.79532842526356
O           0.95722899945902    1.43261926325071   -2.06447978200366
H           0.74567965033800    1.85354061914799   -2.89876039370147
O           0.71986677490211   -2.21489037450780    0.10240657771780
H           1.23403617814049   -3.01940485004360    0.01710247582380
O          -1.71859674806701   -2.16699690282385    1.42092994835663
H          -2.23552437837279   -1.94988978381983    0.63529800718977
H          -0.79100121585310   -2.17312066436106    1.11505484621163
O           0.71182327144478    2.56718208478291    0.34219653605995
H           0.84953331758928    2.32408070350954   -0.60161196349792
H          -0.16730984215870    2.96489890428625    0.41181136836499
O          -0.52145720939060   -0.73292952707920   -1.89924351308195
H          -1.32543354014408   -0.46805479010080   -1.41970277939417
H           0.40154768851319    0.60629262045127   -2.02892880143724
H          -0.07145227766278   -1.35194331805838   -1.29903826173271
N           2.53752416590221   -0.22661246761908    0.07528410173551
H           2.25060089157033    0.31892160077356   -0.73102656655589
H           1.36825738769423   -1.46543784220248    0.19571970285466
H           3.52656480148859   -0.42228108358128   -0.02149842449426
H           2.41459409103601    0.36371971698697    0.88862582470090
