    26
        -50.46400375  Gyration_radius:  2.43630546961 Dipole_moment: 6.296
 S          -0.11251424898211   -2.05551544168893    0.91742987750666
O          -0.47050711059029   -1.78471163747590    2.29082856118499
O           1.27734330688965   -1.80013128908963    0.62017746340033
O          -1.01399488985945   -1.40813566606350   -0.03856382150998
O          -0.35407514822103   -3.61059703917374    0.68245415477426
H           0.20849841786655   -3.98788190885069    1.35011860145610
H          -1.85502638313997   -0.12417742057223    0.37013790502383
O           1.54241382511919    1.91809543578511    0.25363896474704
H           2.11584984759403    2.53298875441680    0.71247166870282
O          -2.30877968945833    0.74856437540479    0.53540550023044
H          -3.23790514500961    0.54218056334086    0.64400611189165
O          -0.07179395091311   -0.48699638792882   -2.32365477912573
H           0.90616613664561   -0.49624855471004   -2.13545850087073
H          -0.45823878069845   -1.00911429118990   -1.58501881470643
O           2.32847539098691   -0.31593846459296   -1.30159962181069
H           2.09088987841307   -0.96929735760452   -0.61093430688779
H           2.29254494417446    0.53335537933406   -0.83965543925778
O           0.05834109280702    0.77411284393315    2.06901742476052
H           0.01351377033221   -0.18887455213369    2.24729997882132
H           1.07568930621970    1.39833306505751    0.96505357502846
H          -0.84487557892496    1.01325568288639    1.82315352587010
N          -0.64798741943288    1.79448972151040   -1.33796505862346
H          -0.91160745556484    2.53829832727338   -1.97309020481048
H          -0.42368570174103    0.83680787912724   -1.87131448018393
H           0.20807420226234    2.03372012544309   -0.80003641645571
H          -1.40680861677537    1.57341785756292   -0.66390187915493
