    26
        -50.46400456  Gyration_radius:  2.43644915139 Dipole_moment: 6.304
 S           0.68304180321422    0.59245665143959    2.06418686730735
O          -0.31099808790276    1.55560026161296    2.47927275166412
O           1.64763421879078    1.12223435116222    1.12937714741235
O           0.09194055593635   -0.66480233555964    1.59973755647386
O           1.48816066051705    0.17939526182394    3.37300937139779
H           1.78940995121795    1.02777068983591    3.67975630164377
H          -1.39939696413433   -0.72185734113440    1.05643235487463
O          -0.09910904667732    1.16530294601825   -2.18048067838406
H          -0.23751288490929    1.89744592094322   -2.78237471837579
O          -2.28151681905239   -0.78919101466657    0.59576883493085
H          -2.86574856120169   -1.22783177005013    1.21535327012797
O           1.22440456377094   -1.99950080041632   -0.37403732901740
H           1.83913878599109   -1.30508686999979   -0.73709484846242
H           0.92722138377444   -1.62455218344381    0.48535733959379
O           2.38318465176134    0.18161592611623   -1.23177429628249
H           2.28650282042405    0.59076871569641   -0.34662242467579
H           1.68073713208543    0.59242512632747   -1.75502576945450
O          -1.28556657582642    1.79548413759083    0.05644909776338
H          -0.44248247095043    1.47151232880491   -1.29603377527166
H          -1.95193586595803    1.10636187458149    0.17626297692863
H          -0.85174395533171    1.86811152666266    0.93258270247032
N          -0.88947242075838   -1.37425130844431   -1.65824422457604
H          -0.65184461723602   -0.44157327284834   -2.04938447284728
H          -1.21969344716284   -2.00843332873729   -2.37581249926215
H           0.03707169691458   -1.74593790713342   -1.15297845805963
H          -1.59142651729749   -1.24346758618432   -0.90368307792000
