    26
        -50.46400355  Gyration_radius:  2.43662826189 Dipole_moment: 6.299
 S          -0.28563643217371   -2.19965522654629    0.40344532339238
O          -1.27931461961942   -1.81812684643219   -0.57263110379605
O          -0.78481523229385   -2.22499196382390    1.75913938918054
O           0.94991512908973   -1.42386606761122    0.27190795185547
O           0.15451400464152   -3.68784437440327    0.05185628884138
H          -0.66046012209716   -4.15806897576648    0.19011444478284
H           1.32840237179114   -0.29300912861829    1.32135031620403
O           1.55240134540034    0.50438978609871    1.87701660832680
H           2.27662191377332    0.23251435779973    2.44202271841183
O          -1.54411469781763    1.91028838550772   -0.29562102809697
H          -2.31766115607390    2.45124602167614   -0.13301434459892
O          -1.16444951358095    0.07318639253647   -2.41938894647803
H          -1.45252799877426    0.81093432674746   -1.86378038978130
H          -1.31305193502869   -0.71600110031463   -1.85774420921723
O           1.39960853421826   -0.02322966861161   -1.91787823642029
H           0.48887170243909   -0.01624754788279   -2.32082816056816
H           1.33692959441734   -0.70026892334306   -1.20718909971737
O          -1.26426876493608    0.35278813847463    1.77904251307062
H          -0.39878296739508    0.58657482169596    2.13892776876839
H          -1.52386977565607    1.23657434921649    0.43893111171224
H          -1.26261444263153   -0.62749686982347    1.76154073816370
N           1.16463011060680    1.98546228797401   -0.36245603545979
H           1.34494510818523    1.16518239159735   -1.10151368009794
H           0.14050700655631    2.15990368222940   -0.36738021870810
H           1.42552227303564    1.59522602889216    0.56441127207618
H           1.68869858392521    2.82453574273369   -0.58028096184534
