    26
        -50.46764372  Gyration_radius:  2.52693836774 Dipole_moment: 3.893
 S          -0.25206449936267   -2.29457254547032    0.21257789060494
O           1.01493728456204   -1.62732708019504   -0.09194957862781
O          -1.31444902464041   -1.84205124125708   -0.64803771361856
O          -0.55803923960357   -2.22061950145686    1.63234262789217
O          -0.02317577100324   -3.83374364013167   -0.08306838654409
H           0.37676954815173   -4.10346215824226    0.73619880926729
H          -0.89019626591764   -0.74907921429237    2.11235125675222
O           1.40708163105258    2.77824148138697   -0.06769087509284
H           1.23442511510871    3.46811953479139    0.57406016434231
O          -1.06246529297540    0.20333403911387    2.34927770033831
H          -1.50501476917784    0.18488611207498    3.19931695439412
O          -2.17291292862456    0.57129117074289   -0.11675901386274
H          -1.88096190798723    0.61841641233054    0.81177794462521
H          -2.01924944313143   -0.36841392918102   -0.36953871722928
O           1.15327495915915   -0.44216564653833   -2.39545809425205
H           1.03485447035623   -0.99274784484271   -1.58093957548221
H           2.09041317278453   -0.23758165980342   -2.42823724519371
O           1.49269315225428    0.58097183609338    1.34981590427458
H           0.67346791684928    0.58857177362110    1.86852390496060
H           1.44578275243084   -0.24730580240135    0.83220385765205
H           1.55718715738384    1.94697244320408    0.46156821382262
N          -0.36730571573850    1.62223081125628   -1.68716371673135
H           0.28553127736591    2.20449313818264   -1.10650780722023
H           0.18718198567395    0.79907568584780   -2.05342860883971
H          -1.14862313342307    1.23687327216933   -1.05636261886238
H          -0.75914244155518    2.15559252298959   -2.45487326737521
