    26
        -50.46111932  Gyration_radius:  2.71282375369 Dipole_moment: 3.926
 S          -1.79315758425350    1.06615639068022    1.31174969553939
O          -1.97617010280829    1.17398158144110   -0.13321927107225
O          -0.43144913434231    1.33735136340245    1.71907498348250
O          -2.29253418067917   -0.20426113033032    1.81581418790539
O          -2.69423650962776    2.19725427524742    1.95723259633948
H          -3.55675897317347    1.97461862072122    1.62202418069938
H          -1.61789122335507   -1.53327550702299    1.26532560478881
O           1.80504608857811    0.67547124687072    0.44614354673490
H           1.11521315312556    1.22992514672435    0.86359379356964
O          -1.12764952343888   -2.30701767874977    0.87297752619490
H          -1.70229539656102   -3.06560058624143    0.98279975268581
O           0.94639296758282   -0.49472476014774   -3.42058098116286
H           1.58535814555374    0.16862336581584   -3.08219640446570
H           1.46483663347594   -1.16639744487740   -3.86518500500814
O           2.59426666912053    1.22653447155538   -2.14319842494911
H           2.44958167673762    2.16734644443874   -2.25720909503817
H           2.48750542717120    1.04873984518100   -1.19299047080235
O           0.94459939574116   -1.00877480952264    2.34281135007909
H           1.95196693316830   -0.01403578941062    1.12238551545338
H           0.37401106738139   -0.23173171689050    2.45313459937270
H           0.36821606662312   -1.69935006029094    1.99193069915975
N          -0.18052529777046   -0.52654840017478   -0.95464283018297
H           0.66861922886128   -0.14615942645511   -0.47122646770270
H          -0.46785958778360   -1.40618847279074   -0.49636138143108
H          -0.95254313307499    0.17982363760290   -0.78714067118895
H           0.03745718383818   -0.64176060690781   -1.96304702904526
