    26
        -50.46364189  Gyration_radius:  2.49477755755 Dipole_moment: 3.032
 S           0.51116635032845   -2.04333200339718    0.36567035349203
O           1.23197656313420   -0.80498399855620    0.07435421806918
O          -0.47753634484807   -2.33433505909439   -0.65076145851128
O          -0.03907689729080   -2.06436583442870    1.70667504925524
O           1.60599152126877   -3.18192807657608    0.29903435672005
H           1.09422370075403   -3.95908770091598    0.49574324069002
H          -1.14422811250505   -0.92445584475208    1.85775021502524
O           0.39101389783800    2.89538873373965   -0.40012015432945
H          -0.13182638994738    3.66600289643615   -0.17762314733712
O          -1.78463767663132   -0.16490422508672    1.88567272739902
H          -2.33067439536413   -0.31094645410913    2.66014272270622
O          -2.43020265049591   -0.54709907284578   -0.75599030924005
H          -1.91103125529708   -1.37815338856660   -0.78178086300068
H          -2.43293705920302   -0.29599862218918    0.18445056965734
O           2.52638079204988    1.08192686014766   -1.65841158776982
H           2.31242937229262    1.88858608603928   -1.18123442973256
H           2.47361018791857    0.36554488740744   -1.01576883473515
O           0.56722757082146    1.28356144364506    1.65670732444427
H          -0.32378279369575    0.98046711231688    1.89411348766768
H           0.98168540717384    0.50782425558890    1.23754467643008
H           0.51403075049863    2.38246816486336    0.44448429778463
N          -0.25282837837405    0.60304417948850   -1.65275498305176
H          -1.23986438400704    0.26858263621493   -1.43166515474455
H           0.39050712012917   -0.00891192811660   -1.09120045697116
H          -0.01612156721850    0.51073654512049   -2.63560684975771
H          -0.08549531933620    1.58436840761385   -1.32942502016608
