    26
        -50.45741750  Gyration_radius:  2.44336644345 Dipole_moment: 5.092
 S          -1.73822699972486   -0.31125269517179   -1.04325962561183
O          -1.22510005167577   -0.62294756108083    0.27074540036499
O          -0.68559250356888    0.15587128446217   -1.93958337649993
O          -2.89653933564721    0.55175860658936   -1.04956927261247
O          -2.23627936852671   -1.71429968911133   -1.64147244288662
H          -2.84965967188894   -1.47982754330077   -2.33221782694034
H          -2.16689732006978    1.70746887804294   -0.10859594265537
O           0.93904480232433    2.32246081951677    0.64176301230731
H           1.17919045280841    3.24288703848771    0.52548584811115
O           1.97350866842911   -1.60245595664220    1.23760397863088
H           2.67456560952492   -1.89342005655374    1.82049084874983
O           0.53264438793376   -2.47594650909576   -1.13772209317211
H          -0.40138480951983   -2.26562626547795   -1.21209637809870
H           0.72172973786539   -2.52413342745253   -0.19443862815310
O          -1.68912746357088    2.22971672138155    0.57249745418511
H          -0.04911579476463    2.28859539283319    0.53996926039498
H          -1.97302710622157    1.85694614074695    1.41145812515490
O           0.28177321556839    0.08793718996532    2.34395859714458
H           1.34691960373029   -1.06073604289008    1.78227313375480
H           0.59516608926326    0.94603598285475    2.03305821944864
H          -0.39198300848805   -0.19158588839786    1.69308178888179
N           1.64109447892045    0.15093946533904   -0.84275571690416
H           2.37986974181456    0.20266959288913   -1.53544579938982
H           0.69063381200046    0.02594378242517   -1.33988428047454
H           1.79608430047336   -0.65518074386806   -0.20392256058975
H           1.55070855300979    1.02818148351173   -0.29142174313839
