    26
        -50.45930876  Gyration_radius:  2.5454336454 Dipole_moment: 6.939
 S           1.74990920522365    0.20901167951988    0.05801421381522
O           0.73230372456732    1.19079188516639   -0.33229091542066
O           1.86983907289559   -0.86692712213237   -0.88425519034598
O           1.45261025728552   -0.26721620119835    1.42281706949605
O           3.11386748532414    0.95936008104727    0.12223878651264
H           2.98363248182137    1.58067458292143    0.86362823948997
H           0.09397073017644   -1.06700073621145    1.60738494483041
O          -2.04118678487074   -0.88421677798316   -2.15986207624963
H          -2.75133710007180   -1.42428748101819   -2.50801971775015
O          -0.79737093733767   -1.50714597667545    1.67488701654725
H          -0.78716052811675   -2.00020826968007    2.49656966432294
O          -1.17016007185913    1.94799773650157   -2.28418437445582
H          -1.27451817208745    1.09415164511137   -2.71448245111445
H          -0.32782835955430    1.90608037018537   -1.81448225033395
O           2.34722252249321    1.95545079032514    2.46149287371117
H           2.97137439820532    1.77414411442015    3.16767623576601
H           1.87882340806674    1.11415185277131    2.27811271936688
O          -0.29142558231678   -2.40280521570339   -0.96825664971016
H          -1.33814055613687   -1.51414125364826   -1.83584761901097
H           0.57097715668150   -1.94317137828122   -1.04922666201917
H          -0.52083737604356   -2.34233630969574   -0.03011637208769
N          -1.72481235500757    0.50143594389166    0.10511282219801
H          -2.32172351357884    1.29030045933669    0.33020029810209
H          -1.68622892851846   -0.21226193415890    0.84961647457295
H          -2.01560429395427    0.06071896928180   -0.80430758491373
H          -0.71619587252506    0.84744855568754   -0.05241951492433
