    26
        -50.45930878  Gyration_radius:  2.54551450695 Dipole_moment: 6.934
 S          -1.42782057920895    0.49824502227209   -0.90826046240936
O          -0.02348674017647    0.83039900524782   -1.17126987886279
O          -1.92699638490620    1.11479966986019    0.28777976651528
O          -1.57353522731203   -0.97018717504709   -0.88895423314964
O          -2.26003730229732    1.02476694003832   -2.11567032254477
H          -1.94441641226104    0.46984219958046   -2.85394622909817
H          -0.80331637949656   -1.73697225871574    0.26789741553056
O          -0.25027672540575   -2.16800564527697    0.97588720129511
H          -0.60481045931279   -3.05134262547346    1.08705246649857
O           1.62969117362433    1.17828363299619    2.36031977062357
H           2.03291537104997    1.15360353584353    3.22862609903133
O           2.24936213977869    2.28428255071324   -0.32088763873400
H           1.43603498735773    2.08157415952478   -0.79976318644948
H           1.98787126886539    2.42735467630389    0.59355169407369
O          -1.41698046570012   -1.08330185032314   -3.49341510970628
H          -1.39063640075538   -1.27065866982238   -2.53168030293940
H          -2.13570429113977   -1.60619264639939   -3.85558470525290
O          -0.77195822131258    0.17593979535592    2.48366537207841
H          -1.29091652716321    0.61629810886889    1.77776662359762
H          -0.66587691057550   -0.73800526507268    2.18377253686132
H           0.67527659559398    0.91329412069223    2.48283713956901
N           1.72203371716759   -0.45491520493720    0.24467089611579
H           1.25005026490121   -1.31867723853153    0.55464621250386
H           1.03252919850914    0.06861573163253   -0.39755085927472
H           1.88253387792034    0.18428741431175    1.06405401960767
H           2.58847044244323   -0.62332801360810   -0.25554428547207
