    26
        -50.45930870  Gyration_radius:  2.54568627485 Dipole_moment: 6.942
 S          -1.14468574277935    0.67330187665834   -1.15932353608459
O          -0.04773299797553    1.35558239744007   -1.78470578220716
O          -1.14252740764969    0.82011081229689    0.30019036314500
O          -1.17861715764156   -0.76397641171055   -1.49265754066796
O          -2.47299706741529    1.29605900866285   -1.68369562463142
H          -3.15156671582864    0.69926544579480   -1.31469922693044
H           0.08227048381971   -1.61928861742093   -1.04786897748200
O           2.64195666666453    0.96940304998805    1.30297218891431
H           3.56862613929659    0.89587535790326    1.53314214802156
O           0.86961680758215   -2.11530034764463   -0.69164892483083
H           0.89529194324600   -2.94711255421699   -1.16678228874596
O          -3.71429981255451   -0.91185633801536   -0.88687835050164
H          -4.20835305724829   -1.33731224850936   -1.59118138205520
H          -2.76682698166109   -1.09580297389097   -1.05794003728983
O           0.14322370005519    1.98316547377008    2.53613817843750
H           0.99692330598949    2.15903936529298    2.12940525649667
H          -0.48133553495070    1.88191286002581    1.80705858438033
O           2.30285034294040    0.28128683395830   -1.18670124633211
H           2.00885012518505   -0.63961472565935   -1.14257196402487
H           1.52259405032299    0.78231895886221   -1.50569588957086
H           2.58230181542907    0.82814284859433    0.31674311561484
N           0.54587606288845   -0.66822108682146    1.57991289560519
H           0.21034705124143   -0.94696160152815    2.49587070518006
H           0.74682125474921   -1.46407909280074    0.95442464880855
H          -0.20198129145826   -0.06443197843939    1.09189176861687
H           1.39337401715811   -0.05150631323915    1.66460092844050
