    26
        -50.46835752  Gyration_radius:  2.48964855904 Dipole_moment: 3.640
 S           0.85689656489876   -0.15510578944549   -1.29026229587766
O           0.33059835016344   -1.41674188046735   -0.80910161780265
O           2.10063958519302    0.20723054669822   -0.62467445111441
O          -0.12858538360797    0.92544672848195   -1.15488712713898
O           1.14204814478752   -0.33503748818940   -2.81090169021930
H           1.26531373428879    0.57953906341907   -3.13673643106008
H          -0.54239948122021    1.34757533538759    0.34549486116176
O          -0.71003024935157    1.61199666275494    1.28721555656785
H          -1.15445787804893    2.46021328542167    1.24847741661181
O           0.30858192094344   -2.05066229881346    1.82216345695220
H           0.37101748480875   -2.09339873652156    0.84987208322458
O           0.86964926775427    2.26887632151231   -3.16656837404000
H           0.41518305434024    2.01305734724030   -2.33747152166436
H           0.18179413126736    2.49126904955845   -3.79818809138658
O          -2.33026749760300   -1.49550837525749   -0.71033539739012
H          -1.36468394059964   -1.40343775408185   -0.84499302987128
H          -2.54154881136545   -2.40453425971705   -0.93041170703057
O          -2.02218518412751   -0.81216824386400    1.89922015358150
H          -1.71019310277593    0.10014046351136    1.81121445437334
H          -2.32569178005362   -1.06036899681249    1.00321078053926
H          -0.61671590383918   -1.73418041347153    1.99322652019784
N           1.54297062343238    0.20873461104360    1.90324477451789
H           0.78110663457352    0.90223278848179    1.96146561681918
H           1.09763091687336   -0.78226794073221    2.01393390330188
H           1.90537305264896    0.23717696272745    0.89855156000891
H           2.27795575657655    0.38992301114707    2.57724060676003
