    26
        -50.46364228  Gyration_radius:  2.49484790746 Dipole_moment: 3.032
 S          -1.94463150810629    0.51352187898199    0.72592416375244
O          -2.41474354875868   -0.48839214013409   -0.20724283203719
O          -0.78301572378258    1.23143334309716    0.20325635436092
O          -1.71685217732124   -0.01931200050399    2.05460647549708
O          -3.07991605503015    1.60623075424769    0.85396073215177
H          -3.81305427107023    1.09166272308241    1.17382617593309
H          -0.56508194181002   -1.12162169594657    2.01116146427866
O           2.77315879372203    0.38843076690370   -0.92491532587091
H           3.57332346223872   -0.13029634000373   -0.83922873047152
O           0.18887953285957   -1.76102250234849    1.90864146568255
H           0.18778951107197   -2.29721544926549    2.70347585312020
O          -0.66754493628814   -2.43819646505309   -0.61097271055875
H          -1.49105482706677   -1.92004334827482   -0.49122235521973
H          -0.24902955441017   -2.42909189371920    0.26781795481463
O           0.75450016809652    2.50649757577845   -1.85765578576198
H           0.16697848324492    2.46078596175476   -1.09495516570042
H           1.63514835338131    2.29988266387627   -1.53210894964667
O           1.56084857956371    0.59040645688363    1.38780887817287
H           1.31011610349374   -0.29766280339574    1.68870727772984
H           2.42152579637355    0.52213224414961   -0.00292362991897
H           0.71994681241848    0.99758120734091    1.11145882572662
N           0.29342254522071   -0.27344947319674   -1.73209302847627
H           0.00788204642199   -1.25748708059696   -1.44004647618505
H           0.02347749719408   -0.05094745772191   -2.68506299756741
H          -0.20863987855067    0.37711834937811   -1.07754359497887
H           1.31656674688887   -0.10094527531427   -1.59467401879231
