    26
        -50.46835754  Gyration_radius:  2.48984213305 Dipole_moment: 3.639
 S           0.00359476465463    1.48064389644474   -0.48027177888467
O           0.22820071287474    2.01448625785268    0.85609121888749
O          -1.29623365259046    0.85161608854752   -0.60287818213163
O           1.08475961573421    0.55795247813205   -0.85016829689098
O           0.03235946944810    2.66029655275096   -1.49693498527422
H           0.97929609006327    2.90172570386300   -1.54948137415261
H           1.30062556578223   -0.72558471560808    0.10202853548195
O          -2.29749917407860   -0.75871048329600    1.32846867626296
H          -2.20299697227552   -0.10338025371096    0.61242921175352
O           1.43310769038725   -1.45924572306293    0.75703562731435
H           2.29090490251758   -1.83815890101183    0.55935767452423
O           2.66821942006126    2.50394647660018   -1.59563304433441
H           2.31179221957912    1.64956344973841   -1.27572137070182
H           3.00142302014650    2.34659665023674   -2.48206871670517
O          -1.30593765118508   -1.28280999265685   -2.19688522074023
H          -2.16691763091145   -1.25107707877184   -2.61784548551062
H          -1.22536862296061   -0.45114381534850   -1.68620278111633
O          -1.01152353743962   -2.70770789833883    0.09553366030991
H          -0.10613638513312   -2.46803407874928    0.34100653314529
H          -1.98063566881157   -1.60836980831175    0.92454710677530
H          -1.12036223134916   -2.37232419043545   -0.81669539987298
N          -0.11198914723368    0.00782362349644    2.45576541232167
H           0.58942901727522   -0.66819372046619    2.11562635766898
H          -0.05147621518460    0.15117180462956    3.45732851538185
H           0.04778965403627    0.91329070111821    1.91161803320844
H          -1.09442527339504   -0.34437298366727    2.13395007320834
