    26
        -50.46680533  Gyration_radius:  2.45931737476 Dipole_moment: 4.909
 S           0.41283745685786    0.92582252340873    1.64979397365037
O          -1.02202359193982    0.96171600525340    1.71340591567594
O           0.90314656417520    1.23969697488877    0.29610419721936
O           1.01446080652233   -0.30478657582429    2.12896766480256
O           0.96923823757709    2.06831465188788    2.58776598742845
H           1.81012189033801    1.70553827824622    2.84436249053004
H           0.60594938436674   -1.71831605352529    1.45821069550698
O          -1.91342035158562   -0.40978036332780   -1.86581546861771
H          -2.26575962555858   -0.79385086213157   -1.03118123009434
O           0.33305948440405   -2.52511850304741    0.95254180648791
H           0.61030159597885   -3.27676154757709    1.47805561976202
O          -2.18288953420919   -1.24714395028532    0.65250199866823
H          -1.89993317888584   -0.44516381464827    1.12771871892245
H          -1.48800479141823   -1.90018813009585    0.81032166639159
O           2.54529038881429    0.87702214332739   -1.96425277194354
H           2.15386830516730    1.18825517776684   -1.13556782259881
H           2.64306036272343    1.65065231417858   -2.52101892540058
O          -1.43936834713171    2.03131421582952   -0.82411057755932
H          -1.87909179025446    0.55632306949983   -1.69320639916647
H          -1.98407904315111    2.02338944694403   -0.03078802832906
H          -0.53779215277174    1.89049700444894   -0.48870714071945
N           0.53650339682785   -0.92603869511024   -1.24710517113733
H           1.26851123698651   -0.88558609717009   -1.95590399607390
H           0.57413885026876   -1.78432739118699   -0.68017305291516
H           0.69598803826407   -0.11514319103912   -0.60446764008102
H          -0.46411359238574   -0.78633664076213   -1.65745251041085
