    26
        -50.47071262  Gyration_radius:  2.41597936704 Dipole_moment: 4.176
 S          -1.39591157318709   -1.39013746890050   -0.48334902533788
O          -1.35476985530198   -0.50241840683007   -1.63378722535731
O          -1.79208559008496   -0.74603703076013    0.74563248748099
O          -0.14228317422402   -2.13197753860316   -0.33347857649152
O          -2.51156960462598   -2.46727260050706   -0.80157092416866
H          -2.30936112002076   -2.71147611016199   -1.69827941040476
H           0.32069102053389   -1.91747642681010    1.23191669409364
O           0.40258046785834   -1.57877768562622    2.15367633250433
H          -0.51617040601811   -1.44821644369530    2.41426131460535
O           2.06933803026724    1.20859510978734   -0.80834356615038
H           2.91410265263771    1.49226345839484   -1.15929294743366
O          -1.28972114120878    1.80019526768038    1.34487553296798
H          -1.68847018606463    0.91435059570727    1.22630500711673
H          -1.19034703343294    2.13504001851714    0.42205889645814
O          -0.64982663927893    2.06965429411746   -1.20464167312028
H          -1.01102437140378    1.19571615662897   -1.44787131577145
H           0.31123023306948    1.96767140840194   -1.20203659578564
O           1.23573660247393   -0.85293163193003   -2.15118053975525
H           0.36310501295940   -0.54217833822149   -2.43944711642747
H           1.81018469307699    0.39449474567567   -1.33277941159591
H           0.99018240503323   -1.50955774813403   -1.46951696226855
N           1.11559859404184    0.93250960421202    1.73732908430719
H           0.94357035305334   -0.09782063968148    1.94233347706055
H           1.65882645226124    1.36524748332348    2.47574321116635
H           1.59008203908527    1.03456688348968    0.81959073202647
H           0.12631214849933    1.38597305392496    1.65185251027971
