    26
        -50.47071254  Gyration_radius:  2.41600855166 Dipole_moment: 4.176
 S          -1.58971242175844   -0.72313270322109    1.03217001560847
O          -1.77836019804109   -1.01211109454133   -0.36895192355383
O          -1.56609306498168    0.69555648050203    1.34884962575410
O          -0.42190861300112   -1.41481119517684    1.58172841156226
O          -2.85002049574302   -1.31781449626725    1.78339266467804
H          -2.77269682126346   -0.93103508626376    2.64881249401106
H           0.22386380054621   -2.26671380498243    0.32968592378965
O           2.09924411484450    1.40100757866338    0.16633598338503
H           2.92905200796592    1.82734958545035    0.38298439870827
O           0.44063694836794   -2.60219125890696   -0.57116786829746
H          -0.42446850650991   -2.65097619852315   -0.99335043837658
O          -0.92603895238575    0.53995535533787   -2.35871677153813
H          -1.43437993468735   -0.05313428468901   -1.76911141139498
H          -0.88561604748998    1.38779286181434   -1.85560849117153
O          -0.52891123984944    2.37271814998477   -0.49716851160972
H          -1.01182787742199    1.86815445736800    0.18517603698467
H           0.40897732626335    2.27253772330661   -0.28657120633482
O           0.89807524371336    0.70414957187905    2.36162799717959
H           1.69478599568063    1.12070807969867    1.03970963167240
H           0.04085548742514    1.14404589567853    2.24745515154899
H           0.65282107806596   -0.23223239606970    2.22406750592137
N           1.39094276659638   -0.42782025564053   -1.73623043012121
H           2.05445719323146   -0.58355890653516   -2.48662960930149
H           1.12349705006992   -1.34439536985283   -1.26550763370867
H           1.77575773237478    0.23065788304521   -1.03191994117132
H           0.45706741798741   -0.00470653205887   -2.11106161422546
