    26
        -50.47071256  Gyration_radius:  2.41597173918 Dipole_moment: 4.175
 S          -0.66704744722789   -1.79233606466275   -0.67635816987294
O          -0.95262247336151   -0.86633494370577   -1.76002934807687
O          -1.34596306681240   -1.48305647165704    0.55883492962301
O           0.77432180756123   -1.96166605851278   -0.48151482759949
O          -1.21789951542737   -3.19984454162588   -1.14723589715345
H          -0.89572603067200   -3.25637629677901   -2.04029831856392
H           1.04066828977776   -1.71734981271668    1.12456641110043
O           0.93639597170476   -1.45982123926296    2.07002708515693
H           0.03742947745535   -1.74448161686080    2.26967359235895
O           1.40662191733838    2.02277927131458   -0.57068660003024
H           2.06733060843072    2.66169964893084   -0.83996159883255
O          -1.40428274209816    1.71684879767933   -1.11237475597646
H          -1.35748660799077    0.79769711256385   -1.43852578276170
H          -0.48929237818840    2.02050198174790   -1.04400073468632
O          -1.97713664345335    0.97787178752389    1.35890734853332
H          -1.98875644857839    1.40588015288604    0.46990705703552
H          -1.96458516825502    0.02114131750958    1.15324064283670
O           1.56642241980078   -0.06872523912262   -2.10305763111119
H           1.59114013161810   -0.82694160401353   -1.48621382429952
H           0.65580608735962   -0.12187661490148   -2.43358648809691
H           1.53326093796133    1.22530102507249   -1.16471514527883
N           0.55238905594509    1.14821479769567    1.87327763468230
H           0.97815004028190    1.51982292402287    1.00250178478769
H          -0.53152152323009    1.15879284035981    1.74357618448434
H           0.81778682427919    0.12471446412356    1.99690590719789
H           0.83459645578155    1.69754439239148    2.67714053454315
