    26
        -50.46798698  Gyration_radius:  2.53189299699 Dipole_moment: 3.747
 S          -1.98890014176823    1.06054365782915    0.46709711870960
O          -2.20937015659352    0.66228000132818   -0.90863409902608
O          -0.61243633864286    1.46301067678556    0.71633248939932
O          -2.46210391487756    0.07177204355102    1.41837329514725
O          -2.85615866513059    2.36706851061547    0.69750675871457
H          -3.71339954626380    2.05858764887397    0.42576118217218
H          -1.55912800692971   -1.22630428609195    1.43211033452379
O           3.04179256343965   -0.79004940103614    0.27133952415298
H           3.33429164664883   -1.66457914920747    0.53074852191234
O          -0.95575829638386   -2.01657933361834    1.36416547986047
H          -1.42206742295156   -2.73784247045667    1.78980042279545
O          -0.76548668090232   -1.47564667566171   -1.30876643826528
H          -1.38809649810703   -0.71080846610492   -1.27038483894506
H          -0.76572408261038   -1.83944407797667   -0.40485490129913
O           0.84524927715027    2.29991268426992   -1.25639234103883
H           1.51227595024333    2.81818772185361   -0.80127006357041
H           0.18481768055542    2.05457145084145   -0.56060375655843
O           1.08693913972749   -0.24141195313011    1.91706841003993
H           0.53369946951061    0.49106227871689    1.58509959399539
H           0.49655734542421   -1.01059838849028    1.89124757919110
H           2.37031714399386   -0.51434939869644    0.95618976751849
N           1.47413943958391   -0.22920746934477   -1.80983976706137
H           1.82890525430445   -0.40704045334189   -2.74253575686474
H           0.56386011955881   -0.77805388091560   -1.64043526699482
H           2.17307701538217   -0.50086371118339   -1.07346992601891
H           1.25270769557825    0.79578244061954   -1.68565333240502
