    26
        -50.46433722  Gyration_radius:  2.51948720565 Dipole_moment: 3.777
 S          -1.78160794683452   -1.01999726290302    0.80164283245613
O          -2.19869230079897    0.33731954671731    1.14569357961571
O          -0.33729898285553   -1.15988935630484    0.85756600725896
O          -2.34970562621278   -1.46150951349243   -0.45384202895168
O          -2.35727077329845   -1.97222529708591    1.92602901888312
H          -3.28240309501480   -1.99044384649219    1.70462986222040
H          -1.72356417925040   -0.75296964027814   -1.85670405804800
O           1.43140897059105    1.95791164228679   -0.14718089162593
H           2.07213789150731    2.66466684590471   -0.06654412682819
O          -1.19183487132068   -0.16437789717935   -2.43823159428722
H          -0.27423507317436   -0.48102064766879   -2.33990493555002
O           3.11993721387579   -1.44605649523555    0.61219640541316
H           2.62215675982991   -1.28727086641052   -0.21103291864829
H           2.83628174415495   -2.30499982514310    0.93001159054675
O           1.21324957537855   -0.65023004778464   -1.23813816408828
H           1.42627364583471    0.27863572807246   -1.06287638005702
H           0.63057719853175   -0.92896499367057   -0.49801808000760
O           1.57243812193622    0.40042920201816    1.89903128488566
H           2.30661075062587   -0.18860078312297    1.63110311442425
H           1.49590875152171    1.42031937019437    0.70706054447966
H           0.77231228180727   -0.13758681345374    1.74622121881590
N          -1.20264165712100    1.80912404924705   -0.73420347207930
H          -1.22449249206216    1.10554406787472   -1.55028814308265
H          -0.20942038273459    2.02405482649511   -0.50316806908854
H          -1.72073282710850    2.65264235259718   -0.95398235143170
H          -1.64539268781696    1.29549566483257    0.09292976473984
