    26
        -50.45619446  Gyration_radius:  2.57542326133 Dipole_moment: 2.972
 S          -2.12072627301430    1.12707178458095    0.66307529273408
O          -2.70806621755947    0.56293745787796   -0.55389728906165
O          -0.77770143175962    1.59716738965724    0.43969170085598
O          -2.23682405304501    0.20975937470092    1.78855277565123
O          -3.00398355721253    2.39482475999466    1.03346923474116
H          -3.85975002392966    2.01914185279966    1.21976384807553
H          -1.22226369666199   -0.90459482926055    1.40486275788533
O           1.39841184751746    1.05704142721794   -2.00065456219202
H           1.07722811552495    1.89444456450993   -2.33804270674938
O          -0.61119724574440   -1.62895365285815    1.08319809325854
H          -1.01826510471830   -2.45590267600958    1.34776078502826
O           1.98352641784521   -1.05162353343562    1.56052728097151
H           2.18841049071548   -1.13351431987436    2.49283313409299
H           1.03263194011178   -1.26239957173467    1.45690738734456
O           1.92871034225329   -1.75901786597702   -1.22689457642004
H           2.22225206346069   -0.96500703884250   -1.68243866194551
H           2.19910915055846   -1.65043564017239   -0.30773633913525
O           1.89098222060546    1.50212273489230    0.50750596382626
H           1.69287214112360    1.25285135700421   -1.06082267976474
H           0.94498019508374    1.68723847752988    0.65011175466365
H           2.04941691817295    0.63600617395145    0.92159568855941
N          -0.61566598507699   -0.63249121342783   -1.49927074458982
H          -0.74431249456704   -1.26442745051868   -2.28364630662764
H           0.16206308784489    0.05505358063347   -1.71715423769406
H          -1.51183667336726   -0.11329993805269   -1.23861687045844
H          -0.34000216414209   -1.17399319519517   -0.66068069305631
