    26
        -50.46109602  Gyration_radius:  2.57323814455 Dipole_moment: 2.861
 S          -2.15741228442767   -0.01323247545943   -0.35092101217617
O          -1.82702119222731   -0.18032292004877   -1.76160043438197
O          -1.47487681641264    1.11230539712333    0.25550891868051
O          -1.97306005315861   -1.25094296952622    0.38547904044516
O          -3.70264951261627    0.32949669901622   -0.28588515230056
H          -4.10594396940091   -0.43787708546619   -0.67925980559925
H          -0.52130712395649   -1.90580599086998    0.50720339374234
O           1.18768366341594    1.49967097468768    0.01069697738655
H           0.23088867004830    1.65582373316724    0.10935409034624
O           0.39986341111464   -2.28069157005556    0.48452750132189
H           0.32720666461583   -3.17097540374187    0.83121686223537
O          -1.00078355104762    0.65141114995680    2.84117568452996
H          -1.28150857274302    0.75282957409419    1.90923517070257
H          -1.16531014249942    1.49659936415523    3.26245880879079
O           2.77619048623815    1.17442991834063   -2.37607312218213
H           3.45609266136625    1.76472870772245   -2.70213511919679
H           2.42946860983580    1.57466076222918   -1.56680409737298
O           1.45089102436150   -0.17082218365820    2.01908859564747
H           0.64070703880581    0.08299465810655    2.50338803255688
H           1.22346024962379   -1.00272662650030    1.57562781294053
H           1.43919818952392    0.98613448805333    0.82514745734163
N           0.73968034737004   -0.55811367125184   -1.58438437341912
H           1.35007717252172   -0.53664278694109   -2.39898034494059
H          -0.28611473596482   -0.43638429111086   -1.82497137193720
H           0.84688695797232   -1.41379119129013   -1.01953200866185
H           0.99769280732194    0.27724374940413   -0.96956149491028
