    26
        -50.44653608  Gyration_radius:  2.46332492634 Dipole_moment: 3.728
 S          -1.07871908557304   -1.22795758757231    1.04382562649908
O          -0.89839995965359   -0.97823779843051   -0.35125921996818
O          -0.37261767518888   -0.30936156717984    1.90768031967096
O          -0.66274895627789   -2.67362759971801    1.38749181685027
O          -2.57439717246574   -1.23398491286000    1.40544239185640
H          -2.83536621678757   -0.26576230553156    1.31162306286527
H           0.33638527953235   -2.65430926492570    1.32267450368716
O          -1.13741564038714    2.28009482130434   -0.83910661371872
H          -1.16012458355833    3.23779529230732   -0.78685247051091
O           2.48586535150838   -0.40913293444399   -0.86962623371558
H           3.31928595608839   -0.54005369484197   -1.32404090833982
O           1.81382420673252   -1.99095593292875    1.22668857878202
H           2.05083520788758   -1.51415147373985    0.40106781312402
H           1.69617639716423   -1.30573660808493    1.89218673360228
O          -2.61810822139647    1.31159138628413    1.17535949575735
H          -1.93015308644996    1.41943360015249    1.83979571995153
H          -2.20647452309447    1.59902021740191    0.32338105875409
O           1.02331096478149    1.53892029667388    0.51967862678284
H           0.55446176222350    0.91679997066441    1.10308330670737
H           1.65387149804209    0.99433950314794    0.02563268138010
H          -0.28556584175148    2.00364643895227   -0.41960048418742
N           0.52787403750846   -0.00249322491892   -2.59406092480618
H           0.27985889235332    0.96983731137022   -2.73365501163206
H           1.77946955090218   -0.30519906193461   -1.57664813956166
H          -0.14273285279738   -0.37186664605598   -1.92084667137754
H           0.38160470065268   -0.48864823509026   -3.46991506843932
