    26
        -50.45865084  Gyration_radius:  2.64578637495 Dipole_moment: 2.947
 S          -1.14843965571859    0.09151869078335    2.01617651929363
O           0.12380916806345   -0.35694688452211    2.50590665748198
O          -1.77722883581529   -0.81222089854329    1.05565319048207
O          -1.09289570553389    1.44942442543964    1.46444321417228
O          -2.14294755632923    0.15417951947168    3.24678744805239
H          -2.98030410130238    0.19986058934087    2.79820339697050
H           0.44852819876902    1.94238663550600    1.09311317584188
O           1.76629606436008   -1.34074349192447   -1.34767254336900
H           2.45003559690442   -0.98921767997285   -1.92006708654430
O           1.31879300172690    2.24496114655098    0.74232021115325
H           1.69858709028387    2.79180299343564    1.43174421500381
O          -0.35931044949740   -2.80001347844266   -2.64516150524356
H          -0.57151096963985   -3.68535207101055   -2.34688380336756
H           0.49529889846971   -2.57557402484390   -2.25227861903039
O          -1.00813883510347    2.24421757481618   -1.08890504532935
H          -0.12910420073273    2.63354623738502   -1.03236141261577
H          -1.25601158981338    2.08053185245817   -0.15604176282499
O           2.29291666645135   -0.30054993773528    0.95409288865964
H           2.15857928070240    0.65111720889460    0.78652049350767
H           1.60227259960034   -0.51128234835611    1.61219539086820
H           2.02072155225662   -1.05531928070631   -0.41834988956380
N          -0.78758379398437   -0.40495050230754   -1.31805954825268
H          -1.23033939600457   -0.97429278892781   -2.04126815212275
H           0.22386415316183   -0.66284591877916   -1.31595326247425
H          -0.91120454722991    0.62762893602045   -1.45707997148331
H          -1.20468266407521   -0.64186649407016   -0.36707419936916
