    26
        -50.44963703  Gyration_radius:  2.5170440045 Dipole_moment: 2.272
 S          -1.92230796526590   -0.40609890404086    1.40398315262650
O          -2.32093234514775   -0.37345097186072   -0.01029994702207
O          -1.47379863893927    0.87163017385737    1.88245158811029
O          -0.98044140117306   -1.49528993749457    1.62683827439867
O          -3.22908160009563   -0.78142658486671    2.21288424325485
H          -3.41073027741273   -1.66670809914479    1.91507720461556
H          -0.47105808184802   -1.99307665102493    0.10393714411872
O          -0.23938512564554   -2.22117499222590   -0.82212565969951
H          -1.08246260935646   -2.37523045400672   -1.25419629675098
O           0.58930828053012    1.91071212269886    0.60793407933571
H          -0.13024538849972    1.88883259626914    1.26659547647416
O           2.58597528263348    1.37437176728713   -1.43041141225451
H           2.11651370391219    1.81725256740307   -0.71206276607120
H           2.89126872149828    2.05711280273419   -2.02989291642369
O          -0.96513301047562    1.28806180058122   -1.28196363109878
H          -0.32362256814169    1.64459417244820   -0.53530995138682
H          -1.61799372882281    0.64618575827244   -0.78557907466262
O           0.64051952424527   -0.26490726548642   -2.40127915724377
H          -0.34991813209276    0.65754215007210   -1.87245069131618
H           1.48190656866740    0.13115467293293   -2.10365104356893
H           0.46857334893449   -1.06333741394089   -1.84924015989433
N           1.62507804411799   -0.41785563546332    1.22023932156659
H           0.75427766352418   -0.84877541410441    1.53429504203056
H           1.08034161204581    1.05171966295061    0.82007091046353
H           2.27011876429748   -0.42418050265750    1.99968149451697
H           2.01322934852231   -1.00765742123931    0.49447477592777
