    26
        -50.44963702  Gyration_radius:  2.5169964754 Dipole_moment: 2.286
 S          -0.94437284927303    0.12774966003796    2.21891275980456
O          -0.60965683069486    1.47203372211174    1.72823430610349
O           0.21811204678155   -0.68511968049178    2.44404303589077
O          -1.94354649771700   -0.48078522523708    1.35033645056453
O          -1.64950480146070    0.34185330284335    3.61894528713877
H          -2.44864163456178    0.80039219446874    3.38088822865549
H          -1.99619627207343    0.46476034904753   -0.03850905683352
O           1.75513523366184   -1.08056070607979    0.33751922724113
H           1.49125234288860   -1.15198403156711    1.27438204308115
O          -1.96487891703111    1.07794434776124   -0.80425834445088
H          -2.09855810786709    1.94954661797542   -0.42528014459207
O           1.45029068005053    1.42534939308821    0.32378008347117
H           0.63965600883083    1.51874526168706    0.97037155033243
H           1.68082478650889    0.40380777607526    0.33306783520197
O           1.95478784869124   -0.63925061611377   -2.52704327796830
H           2.15565408267511   -0.97124719220085   -1.64277682472803
H           2.79201959619580   -0.44596922180580   -2.95178093753704
O           0.40222224681256    1.52018245928412   -1.94224812654079
H           0.80193880609964    0.72232723687676   -2.33847821468209
H          -0.52100240608540    1.29784152271245   -1.67756953287143
H           1.05401794817297    1.59245820908233   -0.64569652339141
N          -0.52226360108614   -1.89232826044132   -0.67481488776340
H          -0.87011367299933   -1.48733012761914   -1.53517847719560
H          -0.64762875772098   -2.89456685913135   -0.73376519001157
H           0.93085138245323   -1.43567273031084   -0.12964516315138
H          -1.11039869125799   -1.55017739212417    0.08656389416389
