    26
        -50.44963706  Gyration_radius:  2.51697887095 Dipole_moment: 2.277
 S           2.39332766026670    0.31996324197607    0.01305754179443
O           2.26115982918730   -0.87049998410818   -0.77942345304255
O           1.89439120840660    0.14593396769649    1.38452558114702
O           1.79610816843798    1.50776398088567   -0.58313115527738
O           3.93926883239269    0.62622233887067    0.15120607538229
H           3.94555845910949    1.46600697373664    0.59864795655625
H           0.51582279436107    1.94029287537461    0.41700294430427
O          -0.20185096954109    2.12155238448022    1.06150422549993
H           0.23853075713228    2.15996941966467    1.91346437862247
O          -0.19463535907813   -1.79542549714257   -1.05156411810157
H           0.77396801262495   -1.79496291480844   -1.16944383215692
O          -2.98335430887394   -1.21790475721071   -0.48501035597953
H          -3.60544399971791   -1.90951607845487   -0.25397638927479
H          -2.20032927956963   -1.65085037075779   -0.84826321848385
O          -0.00722312566923   -1.46537367676330    1.44471739203839
H          -0.10759768668124   -1.70284547633763    0.42994540106520
H           0.83531969126157   -0.85508232422692    1.49151768581080
O          -1.90660164849885    0.14949963154301    1.60904698389996
H          -0.82774738621165   -0.82311753616634    1.64278903625099
H          -1.41689471924920    0.96585579409719    1.35298832321830
H          -2.43184244905459   -0.14039886271710    0.83865856117787
N          -0.59724053095022    0.66026837304514   -1.87468223146614
H          -0.66766501401415    0.78541502882975   -2.87619061446988
H           0.30841453035280    1.02743726322704   -1.57870258440865
H          -1.31391979203605    1.22988036134381   -1.44201932652048
H          -0.43952365437242   -0.88008414606233   -1.40666481755949
