    26
        -50.46664436  Gyration_radius:  2.50044826853 Dipole_moment: 4.322
 S          -0.04587184477629   -0.96902677194427   -1.98845461597363
O           0.91723684254706   -1.46804235257888   -1.00507283116858
O          -0.56791201303065    0.32637312524092   -1.56617514359337
O          -1.05741065286365   -1.91217810412973   -2.37202095607022
O           0.82415561436122   -0.68301205402455   -3.29167995063468
H           0.21433684517726   -0.87364721769480   -3.99718350692351
H          -1.54106345461525   -2.78212393801204   -0.70145142903449
O           0.30440932193712    0.03155622586955    2.55585885197710
H           0.31691088699053   -0.77603092989250    3.07099214929118
O          -1.15646441697836   -2.75339553434906    0.18651161494357
H          -0.22486867147190   -2.56088471041049    0.00444292436003
O           0.66414421913460    2.47624583145951   -0.58155523891357
H           0.15263022700412    1.86874807216169   -1.15050439713425
H           0.04725119316738    2.72040474107981    0.14062507417877
O          -1.01824007025474    2.50625571989972    1.54585466650027
H          -0.53254173644892    2.13525993915833    2.28878055082193
H          -1.62746330830626    1.81286047956843    1.26339300242228
O          -1.63134716709417   -0.19387960829315    0.80073642060298
H          -1.32159231644447    0.07582962448500   -0.09006091838357
H          -1.69794205944302   -1.16991024532522    0.73457057635647
H          -0.47236764951127   -0.05520224503104    1.93386787356664
N           1.92352470646627    0.44985650722517    0.45390260944815
H           1.60191433148359   -0.33895222701249   -0.18100210990321
H           1.52990553065707    1.36466746527173    0.03506747508513
H           1.46463721197894    0.29969457451348    1.38224155530592
H           2.93402844013653    0.46853364285540    0.52831571300718
