    26
        -50.46664446  Gyration_radius:  2.5007003199 Dipole_moment: 4.340
 S          -1.41879960731949    1.60949059533104    0.54265905891454
O          -1.23888967099095    0.50663868840215    1.48865056964067
O          -0.86451978670909    1.24927557839173   -0.75804961559202
O          -0.99426425249038    2.89226795900393    1.02689351946215
O          -2.99478937553266    1.70469497300807    0.33264279727304
H          -3.13215395455616    2.63748508464176    0.20242098138153
H           0.66248245675148    2.50840132170001    1.96405280403991
O           1.76213416592811   -1.80600741429407    0.51120137691736
H           2.21610211344158   -1.84463902107483    1.35395521316534
O           1.09857575494987    1.68178755553047    2.21665832436321
H           0.35185249344584    1.07218858994789    2.31034855754213
O          -1.06446215271634   -0.99203348709208   -2.18867551443132
H          -0.13691415381385   -1.09411106292522   -2.49047946589326
H          -1.12715265472676   -0.06465780289069   -1.88799817882459
O           1.63578083609866   -1.14105619788739   -2.39472330665225
H           1.86213932278717   -0.29405993297008   -1.99092382450800
H           1.92578662296199   -1.81086332564067   -1.76818070230343
O           1.66903593295914    0.71423998067208   -0.21054144476490
H           1.73870229072889    1.15220009708291    0.66400123240705
H           1.78736399608716   -0.84709590584308    0.23276068082832
H           0.76746122458273    0.95233636480364   -0.51502247252958
N          -0.91417678536379   -1.78685112204595    0.28300939305827
H          -1.50338017790133   -2.54586651815799    0.60510688918728
H           0.10141385815625   -1.98718778675841    0.43534332119416
H          -1.05615568747645   -1.58006808873931   -0.76795429260478
H          -1.13317279933583   -0.88650912222175    0.80284406877018
