    26
        -50.46109587  Gyration_radius:  2.57339676785 Dipole_moment: 2.858
 S           1.06179710821804    1.83414400877030    0.53712789938215
O           0.82127859593887    1.44985736443999    1.92329093308787
O          -0.14787152007739    1.84071314123541   -0.26108006677043
O           2.12611875260471    1.04280158872543   -0.05385744287499
O           1.57174631644409    3.33371241246705    0.56528484382824
H           2.37163022296655    3.27509284290432    1.07805388506802
H           1.95505350942179   -0.53652270787485   -0.22024558841743
O           1.79735171280861   -1.51865991769115   -0.23222543816570
H           2.63989811598764   -1.91476478631621   -0.45869514802776
O          -1.87444439905812   -0.23685348653345   -0.29846020382741
H          -1.50193666205489    0.66302701310227   -0.33187685459893
O           0.38888213890634    1.22422407844663   -2.80165587790713
H           0.30636208741006    1.50680247452019   -1.86842225532662
H          -0.17970087472816    1.80696825315962   -3.30767131352651
O          -2.77125609983081   -1.79219656469669    1.96058622778934
H          -3.66715255693028   -2.07219657741765    2.15020322504138
H          -2.81089449580226   -1.27915967691136    1.14178495047183
O          -0.29365491448259   -1.30684562942539   -2.10138131609963
H          -1.44613029019509   -0.70953175079925   -1.06222643277867
H          -0.02095897597748   -0.47740668875372   -2.54073598686004
H           0.45952917765090   -1.54875464468658   -1.54047691675627
N          -0.14525973919850   -0.93842582856969    1.57133684663577
H           0.60890388386799   -1.46772744876658    1.10891888492570
H           0.24014232324472   -0.00100048788637    1.88366401288319
H          -0.89144751612262   -0.71915792643561    0.83806453696344
H          -0.59798590153405   -1.45813905510894    2.32069461556656
