    26
        -50.46764440  Gyration_radius:  2.52656421806 Dipole_moment: 3.900
 S           1.80522238125029   -1.42776940657065   -0.27876619186824
O           1.15590060376260   -1.17201584075795    1.00829859985151
O           2.12560666569383   -0.20489903896217   -0.96856119614141
O           1.04494610577207   -2.38127196121500   -1.07082279414646
O           3.17127615564608   -2.15687693420952    0.05393211372324
H           2.86185702635757   -3.04857966840893    0.16924594519817
H          -0.33824306556651   -1.79783937599543   -1.57256582830676
O          -2.52493058795965    1.27729198973781    1.30525791023784
H          -3.39825250359826    1.23679788868075    0.91388999106912
O          -1.20384834342817   -1.37675281528630   -1.83029613353553
H          -1.55439246008152   -1.91545545642237   -2.54139232776962
O           0.06609339689772    1.03273920155212   -2.00320759983932
H           0.93291551184551    0.63594960880165   -1.75512721430856
H          -0.53684267441716    0.26926566817798   -2.05979981860731
O           1.39966610917379    1.24021628229507    1.93170082520954
H           1.04208449445328    1.12200141595820    2.81454668590696
H           1.43563077172495    0.33097512160717    1.54124550041512
O          -1.52222528894495   -1.10677054628788    0.90721981457922
H          -2.16723068089662    0.34785376625934    1.26695981727093
H          -1.63065204580026   -1.26797254867096   -0.04283013147352
H          -0.55967238013972   -1.18577644058653    1.05979911108702
N          -0.32626695069099    2.33429401464317    0.22903703144455
H          -0.25585800626073    3.34045476352136    0.12859459444884
H          -0.18746201050235    1.84858633773887   -0.72058123970506
H           0.41996398390694    1.97506237925571    0.88748397120332
H          -1.25528621817654    2.05049160518594    0.62673855406971
