    26
        -50.45960414  Gyration_radius:  2.54571589769 Dipole_moment: 5.062
 S           1.08427549566410    1.00741145952963    1.68249735967146
O           2.23342913755494    0.20712456763013    1.29181939416786
O          -0.12849677413467    0.21842216796295    1.77561134010325
O           0.94570409589607    2.19329377425911    0.85507057636653
O           1.36157456341950    1.53790422868569    3.15635736706952
H           1.96594597949076    2.26193916272725    3.02412475879937
H           0.96539676800767    1.48706020646233   -0.52857801534422
O           1.03473361213513    1.00860723709643   -1.40362463172910
H           1.85056770737542    1.32807745294858   -1.79393303229864
O          -1.90293373998511   -1.66471986987966   -1.82264578522826
H          -2.26353124588163   -1.90098438531694   -2.67789152245969
O           1.10173081830981   -2.11156655315571    1.40931965736798
H           1.75496383522190   -1.37268506916149    1.45053625800857
H           0.32188989414558   -1.69597609331279    1.80617738721471
O          -2.35291204095011    1.34391149331809    0.87578347587032
H          -3.02871273569667    0.78350554417118    1.26140184256753
H          -1.50046724030370    1.02369281125746    1.24033195026916
O          -1.79802222193096    0.93052656316331   -1.71251835649654
H          -2.09124577515305    1.19057566003038   -0.81124377649586
H          -0.85656886995029    1.14619286648181   -1.73872472699562
H          -1.96597207016080   -0.66641938495964   -1.76352757112583
N           0.66077812341625   -1.66508512446564   -1.13109235451402
H           0.80959031830563   -1.94549750785095   -0.10177723083883
H          -0.35181719879832   -1.79425937557186   -1.40032770680130
H           0.87959986923523   -0.64342957842315   -1.20986162885165
H           1.27049971441940   -2.20762223362158   -1.73328503803664
