    26
        -50.45960404  Gyration_radius:  2.54558857039 Dipole_moment: 5.058
 S           0.49674384601152   -1.45273360800918    1.63176027285323
O           1.11511989887054   -1.36470448018605    0.32337241026767
O          -0.89533125203011   -1.86502701050210    1.55627521748889
O           0.66244779928950   -0.25451474201290    2.43612400258135
O           1.28520079042746   -2.60153112251889    2.39925302582579
H           1.07348671332248   -2.44601850693595    3.31462530394288
H          -0.37125368949646    0.63850350419243    1.69639261363017
O          -1.08073969963791    1.16941839022996    1.23353100936492
H          -1.75697140272769    1.30829041555248    1.89941690209190
O          -0.23779705113453    1.63571028481532   -2.64179484880133
H          -0.51786786607719    2.40566155356258   -3.13781440698697
O          -0.96339164672037   -2.40813447115067   -0.96793550702146
H          -1.11772198592749   -2.41330150124367    0.00700887657473
H          -0.00297290534453   -2.28778050359918   -1.00607420140474
O           2.76698300369960    0.66820319362107   -0.08024046159939
H           3.23525365296730    0.38972735572181   -0.86932416657480
H           2.19082314070316   -0.08566053790116    0.16840825683466
O           0.82708683300690    2.48336771415299   -0.42696098106488
H           0.20472448853343    2.22656237266755    0.26607985378519
H           1.62547180805946    1.93354681018784   -0.26521127997885
H           0.25734564671659    1.98713295289043   -1.84459467872373
N          -1.77863742839591    0.07203463402432   -1.14797208635766
H          -2.77336924901771    0.14228035644656   -1.33325685402790
H          -1.22179984379273    0.63723670843493   -1.84443682552572
H          -1.55509064156423    0.44062040638934   -0.19296998181423
H          -1.46774294985786   -0.95889016871798   -1.17366146536964
