    26
        -50.46651505  Gyration_radius:  2.52868842254 Dipole_moment: 2.402
 S          -1.61312782201140   -0.06550393497439   -1.56709733742441
O          -1.64908299712348    0.61507178323591   -0.26325347043169
O          -1.80886428376549   -1.48316329931939   -1.41516222270950
O          -0.42824838575738    0.30359422039231   -2.31871861805915
O          -2.83050503057311    0.51409710653803   -2.39555351526820
H          -2.41622088062733    1.23963391884307   -2.85214051838184
H           0.91090183998504   -0.27275934930289   -1.68316844023103
O           1.71576323077105   -0.67289735490359   -1.25825891401576
H           2.37199041078478   -0.73812606731294   -1.95434518095233
O           1.21680523713923    0.29012289965229    2.82826059370913
H           1.95694506825034   -0.20287449894386    3.18476679254322
O           0.20611905954619   -2.66197820927697   -0.15856173742700
H           0.92931577096126   -2.12577613401409   -0.53182281894241
H          -0.56265378017483   -2.47007922499421   -0.73507650940633
O          -0.11254145434265    2.77120737399004   -0.12059473235274
H          -0.68903645801339    1.98910876703573   -0.24995176678159
H          -0.49547339400938    3.26853292538611    0.60433881755864
O           2.06805362288705    1.33492772592513    0.60881520594875
H           2.04591591708748    0.61006019555315   -0.04002932713079
H           1.38789890242882    1.96897840731439    0.30364053086715
H           1.57347305561892    0.76876324744265    2.02242905324226
N          -0.76366190698791   -1.00129605897887    1.62277460020540
H          -1.18556391764091   -0.32358473155511    0.93215484490345
H          -0.00971763162434   -0.50795142083990    2.17737004525431
H          -1.48625446699184   -1.36962420332122    2.23127246926506
H          -0.33222970581697   -1.77848407357164    1.02791216601722
