    26
        -50.46556436  Gyration_radius:  2.55467566502 Dipole_moment: 3.619
 S           0.22537353056341    1.26212530767393    1.80546635514845
O          -0.55457482871116    2.27919150503653    1.15447445527623
O           1.42763086134494    0.87599021587572    1.06981478167201
O          -0.55311353459239    0.07658264027791    2.16045709754363
O           0.73339612161240    1.88149624702325    3.17083283488878
H           1.27065587547660    1.19107061795017    3.54648606436356
H          -1.81919540399475    0.21076551704399    1.01967258296955
O           1.31987937625608   -1.44810393356303   -3.08545618343054
H           1.62843494820437   -1.34484678104084   -3.98615721225339
O          -2.42599474280768    0.37697628964092    0.27293993976394
H          -2.55883516431046    1.32887216083343    0.29250411683322
O          -0.46820184763977   -2.51697327628152    1.61752339927314
H          -0.50567094026291   -1.61104999029739    1.99056571748188
H          -1.38032681887807   -2.76777920993466    1.45746223009714
O           0.49563277998019    2.17760969438659   -1.27616305455042
H           0.03982932412336    2.38674274534494   -0.43590996896857
H           1.38251536339956    1.92794136912579   -1.00229220867814
O          -0.88804017573041   -0.01197663282128   -1.88757397279482
H          -1.62619824392165    0.06857027281320   -1.24491336192703
H          -0.42923806060971    0.86029777793143   -1.84344867068166
H           0.46945029884468   -0.99243364450608   -3.03147037267185
N           0.86244617425342   -1.26511824130581   -0.35030420382118
H           0.10888915862963   -0.86042739037277   -0.98495647191332
H           0.44089286968766   -1.96023947494219    0.30317652444735
H           1.57783550837271   -1.66696262079231   -0.95406146574899
H           1.22652754073670   -0.45832118509163    0.22133103769855
