    26
        -50.46556477  Gyration_radius:  2.55413800675 Dipole_moment: 3.611
 S          -1.53072052043512   -1.57479858607547   -0.26379098667080
O          -1.44942594377404   -0.50609149171824   -1.25720871644723
O          -2.12136160814188   -1.16868924299682    0.98226749949187
O          -0.22657824315044   -2.21575889865930   -0.10217956871913
O          -2.48736871339554   -2.67209770321627   -0.88558310395812
H          -2.07854432288064   -2.88227039958125   -1.71933891027485
H           0.24198104769148   -1.54449520790615    1.39883455281271
O           1.38705264898355    3.28169840966365   -0.80592432332414
H           1.30812842480007    4.23581019889068   -0.78566133025123
O           0.40189364490584   -1.02902846706253    2.21254259619817
H          -0.44519793319393   -1.04814733252303    2.66663903050714
O          -1.98755423120759    1.46438532943081    0.71458055437906
H          -2.16571433545874    0.53224853731590    0.95288103481690
H          -2.08805156870381    1.48183770383542   -0.24118167382773
O           2.24390416494922   -1.79582348619526   -0.96652484992819
H           1.35382663255434   -2.11729701994149   -0.70987425845962
H           2.80615372800150   -1.95879968972138   -0.20640864299493
O           0.60183813712672    1.49353495759587    1.32922240082556
H           1.24061175224252    2.97409597553599    0.09831904811240
H          -0.36813929894877    1.63982048161687    1.22386793543751
H           0.66761515735667    0.65054826067863    1.82861857736283
N           0.95402573287780    0.55449554996899   -1.11861877230655
H           1.63679567449798   -0.23098958565430   -1.18638166231674
H          -0.00705022137375    0.16943112390144   -1.31464463304873
H           0.92477608388843    0.92600561705268   -0.12090441618573
H           1.18710412083590    1.34037498580621   -1.72354740120850
