    26
        -50.46556482  Gyration_radius:  2.5544064354 Dipole_moment: 3.629
 S          -1.92137744972642    0.66329675485056   -0.87408882392005
O          -0.68848437907418    1.29811170766166   -1.33520647601680
O          -2.33911758098683    1.08399557400267    0.43545863502872
O          -1.82416452773573   -0.78917326151122   -1.00971659720499
O          -3.04976724999990    1.12634893569431   -1.88305183405945
H          -2.71229331903716    0.86656120524245   -2.73456326952730
H          -1.58864445666984   -1.21839174644250    0.62856680309720
O          -1.38893425127543   -1.30032285119631    1.58081556071261
H          -1.99136167848663   -0.67692189401236    1.99624472117806
O           3.57132714551058    0.46653944841590    0.61268961029445
H           4.28415824865341    0.95013886605697    1.03096843744222
O           0.05927058462484   -2.53894079533305   -1.65547328493784
H          -0.05267621802977   -3.26605852326918   -1.03967555259762
H          -0.73413308239424   -1.97380690123255   -1.54324190904875
O          -0.10290851771084    2.22471332766678    1.28448497179873
H           0.19792961881386    2.53113154883686    0.42454555073050
H          -1.01095723493576    1.90192714608282    1.11497032184717
O           1.01104878383399   -0.13206785448067    1.82111279466347
H           0.20393970341761   -0.68193446085067    1.92446247525278
H           2.93424278096698    0.25831035671801    1.30879737102446
H           0.67391796615392    0.79480948155780    1.79897061296980
N           1.31251629154612   -0.32352024733834   -0.79995768854075
H           1.06254476111408   -1.25498926339005   -1.19707382843344
H           0.59281049920755    0.37383617926407   -1.12559167199870
H           1.23845327425614   -0.34932083009056    0.26218397063453
H           2.26266031794234   -0.03427188294059   -1.02663091039346
