    26
        -50.47301014  Gyration_radius:  2.48582186337 Dipole_moment: 3.138
 S           0.59531369628398   -1.35420284621446    1.37920257103564
O           1.29124443091186   -1.09318726170883    0.13292519957993
O          -0.39767688163796   -2.40588537176120    1.27115919502902
O           0.04737300169261   -0.14636233668796    1.97993909882122
O           1.70396557872419   -1.88646394071356    2.37927594272701
H           1.19570695905711   -2.18593135143104    3.12606582143958
H          -1.30706738703975    0.47429663371506    1.20792055621781
O           1.59156614597623    2.77254529426782   -0.81710710786702
H           2.34667536050167    2.72419523728162   -1.40539147171539
O          -2.01688527219159    0.71173251052384    0.57151331773446
H          -2.33156589752763   -0.13964733807052    0.22417507703937
O          -2.19459599017508   -1.82963565866631   -0.49477633838975
H          -2.84676722993659   -2.53186345780198   -0.51334215287987
H          -1.52185637208617   -2.10153381018737    0.18440020189702
O          -0.13733719336602   -0.95995862963403   -2.10136793001284
H           0.51900988814258   -1.10370649787641   -1.38754047294037
H          -0.94569387550566   -1.38656742114628   -1.76942231500281
O           2.23339282380392    1.15788614187767    1.15060161652854
H           1.48829307415606    1.07788118372660    1.76381363600025
H           2.19122336939080    0.31163873798211    0.67001037071579
H           1.85285905804723    2.25801143608709   -0.00610190077082
N          -0.67489748194073    1.54891260590761   -1.52653513810253
H          -1.21872332232646    2.07503344528220   -2.20122915589858
H          -1.24885530030620    1.35637665855073   -0.64659553444268
H          -0.41664613945759    0.58381122149409   -1.90180950073225
H           0.20194493680329    2.07262481522217   -1.26978358601096
