    26
        -50.46544375  Gyration_radius:  2.48668623932 Dipole_moment: 3.828
 S          -1.74532315003394   -0.65612508342766   -1.18994218238894
O          -1.29645595483562   -0.09481430056943   -2.45129008557751
O          -1.69746837827440    0.27767846586072   -0.09121005717920
O          -1.05655401560192   -1.90962490222728   -0.88401483029832
O          -3.27215491569943   -1.03489098548221   -1.39357646593543
H          -3.26208660405598   -1.50300665949799   -2.22240327715446
H          -0.07993365266051   -1.81125577698981    0.39046468559649
O           1.13517986544947    1.93445577133101    2.56233435713909
H           1.51565583401617    1.89233952723821    3.44010315382877
O           0.66030456752286   -1.71504390107094    1.04425131568899
H           1.24671669943813   -2.45289543703520    0.86451229604453
O           0.01232973691953    1.91987085766510   -1.41902412040723
H          -0.66413459249274    2.22755425886281   -0.80770570758057
H          -0.44246692460621    1.21228123381960   -1.93265135640353
O           1.32787347593537   -1.04029450721487   -1.87701440027773
H           0.49659525789025   -1.47424953435715   -1.62564935896181
H           1.10689116517829   -0.54918253751178   -2.67119211841954
O          -0.84839583807036    0.20516731864104    2.45428605215354
H           0.30171918872271    1.39359939782531    2.59479884442309
H          -1.30697893940627    0.32375939192476    1.60055021566109
H          -0.37667226391624   -0.63001250613690    2.34933704005718
N           1.67042743716787    0.69918808087221    0.25736949907936
H           1.02510130739250    1.16061807744196   -0.45596218440408
H           1.29554519105561   -0.25456957980618    0.47759718346648
H           2.59598687471141    0.61013654898213   -0.14890634354316
H           1.65829862825288    1.26931678086815    1.13493783539256
