    26
        -50.47113450  Gyration_radius:  2.40834129052 Dipole_moment: 2.397
 S           1.00425882813706   -0.98336828345148    0.03674412764712
O           0.87289986284448   -1.51946899526064   -1.29233829776308
O          -0.14750907712121   -1.31315669691334    0.87876976870669
O           1.22750643661705    0.46729530347226    0.02354732304567
O           2.26107651412060   -1.62938821554822    0.70355100614433
H           2.35653598696487   -1.14015996047150    1.53750594364885
H          -0.14584832698134    1.53369006709552    0.10245798408596
O          -1.36470732134469   -1.03876256584655   -2.85452050521991
H          -0.65330250867568   -1.59825623638338   -2.50380442947419
O          -1.02927829415225    1.87973570784690    0.33617699699225
H          -1.08743931749933    1.69930886068161    1.29708401789513
O          -0.70880890390454    0.60811658400716    2.69359556041893
H           0.13716033427155    0.77088116343462    3.12211494007999
H          -0.56119500701217   -0.19345840503206    2.15744274296150
O           2.18437773599431    0.44524782424511    2.43430334932919
H           1.82332757264984    0.67205986781407    1.54751062472388
H           2.99574461367993    0.94627272686659    2.53869706877703
O           0.65914998722621    0.77061314152261   -2.79018528083046
H           0.84796634075832    1.52252023659506   -2.22542389305978
H           0.96613949612685   -0.00701077180382   -2.29501530352641
H          -0.88629272003359   -0.25968439761543   -3.18828106460655
N          -2.18755413727576   -0.32894776189579   -0.45744052555781
H          -3.14742400208446   -0.51645046749172   -0.18838129735237
H          -1.90475014354416    0.67984706908604   -0.24744860125645
H          -1.50838987550668   -0.89579702415894    0.11265954245531
H          -2.00364406316565   -0.57167878276168   -1.47932181788471
