    26
        -50.46086473  Gyration_radius:  2.50615520343 Dipole_moment: 4.211
 S           1.84898736294035   -0.26787760058372    0.89187872198557
O           0.98091518628399    0.77809592390651    1.43634344866708
O           2.40089180308787    0.04172957267474   -0.39399567233439
O           1.14638236316786   -1.55266898567374    0.92470194361605
O           3.05052992377223   -0.39604187988684    1.90967901975572
H           2.58666157608466   -0.48843211613626    2.73434771799754
H          -0.52327273711046   -2.14010030921694    1.02186320479374
O          -1.46028384368487    1.71956342880202   -1.46472531472635
H          -2.06182200293790    1.82000460543775   -2.20298318729477
O          -1.45701309252798   -2.21434653726592    0.74374125312731
H          -1.40353208973865   -2.53130193980902   -0.16487513155070
O          -0.62115696781223    3.11084976354213    1.01627239946026
H           0.15283063123521    2.57676419858626    1.23078684161015
H          -0.74171027053810    3.03221852529209    0.06444531701296
O           0.37301720282697   -2.28607132031760   -1.50264285426174
H           0.76344725949352   -2.02723135574476   -0.63780822286930
H           1.06118545454286   -2.76605239766963   -1.96589480067983
O           0.55937205734622    0.32289164970021   -2.29879664961594
H           0.32687480765189   -0.62063959722513   -2.23086933240986
H          -0.65270768571497    1.25114068208404   -1.82368910904240
H           1.32864059369418    0.40968303232013   -1.70306044743636
N          -1.56079861385572    0.43792568380697    0.88729128583884
H          -1.73010656194086   -0.59896490887358    0.82489418491345
H          -2.14512960365085    0.89472416144411    1.58114928968398
H          -0.54169044646934    0.57737888065551    1.15899492100308
H          -1.68051231615369    0.91675885015406   -0.03704882724773
