    26
        -50.46398721  Gyration_radius:  2.49850650469 Dipole_moment: 3.877
 S          -2.21216790017962   -0.26400371545658    0.30871197788424
O          -1.54690717208360    0.96196513182897   -0.14034213429010
O          -1.54866499526463   -0.84073936970906    1.46228455954675
O          -2.41964603487230   -1.18732549980120   -0.78493981850936
O          -3.65725296822018    0.17399464362438    0.80242419594162
H          -4.16199554938549    0.18647062218352   -0.00488858608166
H          -1.23141627701088   -2.46857168401265   -0.56283503243382
O           2.32596262818167    0.39329475901370    1.03797112489000
H           2.92501998064950    0.30475119079490    1.77980765425647
O          -0.48163441470865   -2.75070473315278   -0.00067547372854
H          -0.71117611690361   -2.30181123436614    0.83387064124615
O           0.16480451702666    0.69711277148036   -2.13005698273942
H           0.73177426558023    1.45476486940762   -1.87619063453217
H          -0.61321102714502    0.76845093008739   -1.53477776394529
O           1.67294455934819    2.47211573288154   -0.74795078559972
H           2.10818009855556    1.83826780690520   -0.15764661106128
H           1.00416901687306    2.91164875042187   -0.21715569067230
O           0.03570907075957    1.23688908925370    1.90864142430902
H          -0.51743577670753    1.35968822422018    1.10450982198948
H          -0.40589077117717    0.47405551082263    2.30997504907057
H           1.44921320682971    0.70525462289057    1.41982465198370
N           1.44088509320736   -1.24128446376832   -0.96588614943100
H           2.12322976366618   -1.72538536691023   -1.53853301812245
H           0.71103385000592   -1.92400542537460   -0.58202432082685
H           1.90023505766143   -0.74591820782948   -0.17899049460991
H           0.91423787539395   -0.48897497509496   -1.54512761427786
