    26
        -50.46071434  Gyration_radius:  2.58313563825 Dipole_moment: 4.702
 S          -1.60188011337933    0.24184231172580    0.33937356430386
O          -1.05002151220657    1.57963176869694    0.53197581052869
O          -0.81641085440799   -0.77410381784640    1.03448360277806
O          -1.73289102637884   -0.08620178855949   -1.07183667153988
O          -3.01962219406278    0.21107903667658    0.98700575779651
H          -3.42667852128414    1.04018386582472    0.66449786311539
H          -0.52183963419849   -0.38244622253186   -2.00547624872326
O           0.31170123002350   -0.59091316792601   -2.51968324196194
H           0.03742615297540   -0.67898062786233   -3.43353287037424
O           2.92361037645219   -0.14436629277415    0.57287174225669
H           3.82050461699225    0.06237886174204    0.30786055893611
O          -3.38408948427735    2.69489589651054    0.16384558940709
H          -2.41898077768377    2.52649479414561    0.18684284467087
H          -3.56089744866493    3.34977432392561    0.84322727595249
O           1.38231276972957   -1.74226710878187    2.52177575865502
H           0.49891994254483   -1.39689492613067    2.34328007582165
H           1.99019515452668   -1.02698857334514    2.31107956601184
O           1.28505874721032    1.42133789482948   -0.73017582391322
H           0.45784515991962    1.58209937048114   -0.23107744316225
H           2.34299376390194    0.55663149652986    0.17002407530262
H           1.02799112475262    0.91964504078023   -1.51520443649782
N           1.10511328013967   -1.90318972269306   -0.31304644855072
H           0.27675547076308   -1.51879441598780    0.24812718362603
H           1.94509851498023   -1.39471019660719    0.05699110876119
H           1.18861905181279   -2.90239449069999   -0.15927771659885
H           0.93916618995830   -1.64374332952968   -1.30395149614331
