    26
        -50.47250302  Gyration_radius:  2.48728089561 Dipole_moment: 2.874
 S          -2.17409106214138   -0.08403477276393    0.64025802003205
O          -2.43159529791291    0.01831800894251   -0.79095424658670
O          -1.08477139695642    0.77756972228865    1.05815376326717
O          -2.01899236866929   -1.46116948495137    1.06832445226849
O          -3.47079984733033    0.46013734415520    1.36984853706531
H          -4.09244596825988   -0.23408918466235    1.18003704088633
H          -0.63743668365310   -2.09839237922559    0.59459835011781
O           0.54641188053662    2.51363070648845   -0.21264645095285
H          -0.09061201999119    2.10935487931879    0.40495729830664
O           0.25373822277541   -2.45906131018208    0.34565804239796
H           0.15095466656799   -3.41099053850625    0.30535704048744
O           1.53442284902986   -0.94159148141861   -1.53223283332421
H           1.10100347751003   -1.56737630842825   -0.92146158739132
H           2.08997333604935   -0.37481820414180   -0.96727295455374
O           2.62276490939024    0.78157831519093    0.32102378574461
H           2.09092874753473    0.33978293276515    1.04524013741899
H           3.49244464386343    0.94617827033053    0.68582190611248
O           1.08779672143176   -0.42014957462197    2.04867238169909
H           1.39627788841659    2.08023825596506   -0.01240899744923
H           0.24958305950518    0.04798070558382    1.86026965544393
H           0.96214707244451   -1.30179604705560    1.66818255386680
N          -0.31930289812553    0.86194223045079   -2.06453452984117
H           0.40545550604298    0.08858841674479   -1.99208609071515
H          -1.21825411387050    0.51844853780264   -1.61725792919734
H           0.02970191839477    1.66597173839895   -1.46023122774018
H          -0.47530324257940    1.14374920151893   -3.02531612735323
