    26
        -50.45879358  Gyration_radius:  2.49504095964 Dipole_moment: 6.349
 S          -0.97089409005645   -1.12820208925628    0.65988375208266
O          -0.44551553961401   -0.28931420069063    1.70448489119126
O           0.11243736060099   -1.55884144010746   -0.25844899592308
O          -2.03251191506846   -0.49700901890721   -0.10514460594003
O          -1.53490464908821   -2.42341913156403    1.31625278523468
H          -1.70163018893856   -3.01268731878724    0.55480343153537
H          -1.71382366426590    0.82244642506006   -0.86802316421064
O          -1.41147540060091    1.64641900670295   -1.35155516816087
H          -2.08419426605542    1.81945558885098   -2.01189873545665
O           1.88077570532761    2.32410610107963    0.71981785131293
H           2.21629582535777    3.21597453541413    0.62658728568793
O          -1.24193132791333   -3.68814387264024   -0.99571176144524
H          -0.69412900095003   -4.47322600346735   -0.92378632875818
H          -0.63523880240327   -2.92177906389329   -0.97178769314631
O           2.46023398911581   -0.63947903078632    0.96484685451247
H           1.65302544873717   -1.14255802179736    0.80455735907663
H           2.22391204425192    0.02046799266483    1.62133081013867
O          -0.65860044106357    2.33653090012152    1.34502466010748
H          -0.68226738318457    1.40191424877358    1.63724504371471
H           0.95621330287245    2.40005140079487    1.08110923204614
H          -1.11535743235890    2.34959726349875    0.49467183020004
N           1.09736626742565    0.69327077599783   -1.23116063930667
H           0.81652154660423   -0.25319121407146   -0.84552837244310
H           0.21088381688353    1.17991905465748   -1.48769295487579
H           1.57085064701046    1.24284409188220   -0.45944070620546
H           1.72395814737063    0.57485303047205   -2.02043668097333
