    26
        -50.46882325  Gyration_radius:  2.54691547103 Dipole_moment: 5.059
 S          -0.85039432753331    0.01447504519068    1.13388910555232
O          -2.02427343910831    0.18143183271252    0.28633043260032
O           0.12097594726165    1.08048025505868    0.90023831079160
O          -0.22946189746308   -1.29794369187351    0.92652247116938
O          -1.32936040274433    0.09563463694895    2.59874295789476
H          -0.61798445735462   -0.39517588064355    3.10680311958908
H           0.28128759102105   -1.62876468380098   -0.52576998555189
O          -0.50618148667743    1.88430746036471   -2.96468763874582
H          -0.83340611861375    2.65422681244847   -2.49574030228529
O           0.54466479650811   -1.78790782842714   -1.47575404584625
H           0.91559038908825   -2.67104918094231   -1.50349167072676
O           2.14298836236851    0.84589861636967    2.58845618786118
H           1.45043934641023    0.98488640691488    1.90550713843214
H           2.24022662608500    1.68404938786318    3.04284588383132
O           0.68953759064165   -1.23045863016148    3.45226729933247
H           1.38889134587652   -0.55501069934476    3.32568027878305
H           0.60492572152196   -1.66859976563704    2.59185676166148
O           1.38373917493887    0.92429849902452   -1.44092145112191
H           0.32862141379595    1.61742050835642   -2.48871506535913
H           0.99162003845860    1.06349710788571   -0.55331499248535
H           1.40220928078051   -0.03355376730626   -1.56405318617546
N          -1.63785747729987   -0.36729797883771   -2.19653028306631
H          -1.88251127437681   -0.14872846289132   -1.16895066210206
H          -1.28702361591943    0.54025781644799   -2.62602187465045
H          -0.85034095013240   -1.04321108350154   -2.16086340750303
H          -2.43692218688316   -0.74316276299140   -2.69432535461556
