    26
        -50.47008307  Gyration_radius:  2.5084951923 Dipole_moment: 5.872
 S           0.39881776435701   -0.28940461667361   -1.11271801188345
O          -0.69648433399745    0.70371083897932   -1.05426366221779
O          -0.11911771326648   -1.61172058421849   -0.85853859209903
O           1.44996342653417    0.09001956019927   -0.16759993575643
O           0.98621116424215   -0.24411066111797   -2.53818832493624
H           1.62245720467085    0.53030008101850   -2.51376961586736
H           1.00723436703858    0.10889460010589    1.35836721703784
O          -2.15430742830572   -2.50659816619238    0.77056482948244
H          -1.79107368574634   -2.47316525924146   -0.12711201029477
O           0.63249637049369    0.12304817492960    2.28136728235878
H           1.15569710516582    0.76031490247013    2.76996700832961
O           0.18520701831043    3.13146759122884   -1.61346708081102
H          -0.28407316751925    3.42450801240155   -2.39647785323660
H          -0.20427238418245    2.26232428240148   -1.37145504333365
O           2.47720425602790    1.77017076277999   -1.98914628885532
H           2.51226053142525    1.34011459170701   -1.12105636990534
H           1.80000679287790    2.47287642165518   -1.89879956594830
O           0.37006212293653   -2.66073883209411    1.62118011944026
H          -1.38846400270102   -2.82259601727172    1.29866144618233
H           0.46039043241279   -2.40070784596872    0.68776758635757
H           0.62916825430075   -1.88413520989784    2.12985909401463
N          -1.83503404548212    0.05174006363978    1.18911934762636
H          -1.48389770038318    0.37802729387008    0.23704457445433
H          -2.62474208977429    0.60346415783843    1.50670274815704
H          -2.08526416133143   -0.99265062106602    1.08074634300747
H          -1.02044610815929    0.13484645847494    1.83124475866369
