    26
        -50.47008304  Gyration_radius:  2.50860934168 Dipole_moment: 5.873
 S          -0.47124231350910   -1.08010278840407    0.30275117978782
O           0.65612277348560   -1.10980513644127   -0.65514579335260
O          -1.67386095005339   -0.64234733431887   -0.36318753636270
O          -0.12060550650797   -0.22815463410689    1.43999024435419
O          -0.67633818836172   -2.51945709010494    0.81775570441834
H           0.00541336850818   -2.61572179582382    1.54654480945322
H           0.14039438478920    1.29764352348390    1.08058969682839
O           0.31484572293816    2.22382883217213    0.75775386554370
H           0.93311936422452    2.60933723340963    1.38039570216005
O          -2.09231668635970    1.15619976701053   -2.40976182712712
H          -2.21596721557182    0.24941913988384   -2.09153649506030
O           2.86201935962756   -2.00200040544537    0.49470634996389
H           2.08700750339815   -1.63852289560845    0.01213112035490
H           3.11754653088932   -2.79850323982725    0.02621448845282
O           1.17719439865443   -2.28295402848134    2.57560922301326
H           1.96818564327414   -2.25872738614141    1.99743726284786
H           0.85457348124073   -1.36914825261824    2.60056320367519
O          -2.47011432172427    1.93164377677236    0.11517432031452
H          -2.33902667954801    0.97028899597759    0.19005652563805
H          -1.67812871663297    2.32859772948296    0.49490923344923
H          -2.43913898366423    1.69308133763885   -1.66365243367793
N           0.43415803939593    1.23581568693745   -1.75170469305806
H           0.59419237818879    0.23850751684390   -1.41104597144600
H           1.11854527193736    1.50817125886596   -2.44908027344583
H          -0.57402200735758    1.26927666406852   -2.13576478543179
H           0.48744335873323    1.83363352476274   -0.90170310129927
