    26
        -50.45759458  Gyration_radius:  2.57491902775 Dipole_moment: 5.984
 S          -1.80341965865427   -1.79821122344114    0.55215543346988
O          -2.14396604518779   -1.41443767194265    1.88633592471122
O          -0.42639360825292   -2.27660965486151    0.39682844243981
O          -2.07327319624142   -0.75107476371073   -0.43483544515433
O          -2.73166285399160   -3.02487872095007    0.14655480914931
H          -2.49146952446913   -3.20366809541989   -0.75832539577852
H          -1.88210335965117    0.43764133478434    0.61645061087692
O           2.70548169836144    0.03679058513819    0.04067473582478
H           3.47521293464428   -0.39924450971301    0.40703032733623
O          -1.55543317208140    1.22207942069463    1.12932001511475
H          -2.04707365661127    1.18250090166878    1.95250555418393
O           2.10114692292870    2.54258812062908   -0.68903329259636
H           2.49161314215879    1.66450483933965   -0.48918105417824
H           2.10275608927945    3.03026841906324    0.13681332357743
O           0.68633709657961   -0.97523016384981   -1.57876677494647
H           0.21951633316419   -1.53292913377849   -0.90833827454643
H           1.56314729427854   -0.80159944022701   -1.19728848201663
O           0.72434393541853   -0.24932360606251    1.69790390078249
H           0.33830380459897   -1.10165258423136    1.41590943187932
H           1.98013415776463   -0.05809555240729    0.72394498490463
H          -0.01559835688645    0.38078468737198    1.65523642665782
N          -0.25431366816270    1.44075905137082   -1.34993257776035
H          -0.77788579172654    1.75748178077738   -2.15842184496185
H          -0.84036172712920    1.50020962632802   -0.50802289981062
H           0.03006460330642    0.39642324145194   -1.48386422122433
H           0.62489660654613    1.99492312194093   -1.20165365795631
