    26
        -50.47201769  Gyration_radius:  2.51765551276 Dipole_moment: 1.432
 S          -1.69851030055925   -0.97066640764947    0.41471615082272
O          -0.99909580524341   -0.70489767325018   -0.84270745386567
O          -1.73276397261346    0.20190925440668    1.26294332389789
O          -1.19439118152134   -2.16221598426881    1.06265880201121
O          -3.20255714409780   -1.27442753047199    0.02840282908510
H          -3.13968292416503   -2.15166527233796   -0.33383553275024
H           0.40188259388957   -2.02814298927745    1.28841728385389
O          -1.97218867685258    2.60149734919262    0.06669527657091
H          -1.98570189593750    1.72975756254666    0.51070073855756
O           1.36874970942756   -1.85307293797582    1.40708416414399
H           1.68810387422034   -2.52273124383882    2.01426853530290
O           2.44581855591966    0.87693938931378   -2.20180400969227
H           2.47013746518360    0.85134248024572   -3.15887737974377
H           2.25959556408656   -0.04908638587261   -1.90830364044055
O           1.56813150785288   -1.48576102384895   -1.34485888152043
H           1.79162713729782   -1.67906051467052   -0.42203167548230
H           0.60709442514325   -1.33701885381333   -1.33051374286763
O           0.82478269602887    0.77857769613960    1.92958750646116
H           1.22549086396924   -0.10545097449717    1.85814128900368
H          -2.58945161354844    3.15334977493003    0.54798777891625
H          -0.13503106367739    0.61985984294347    1.97063959422537
N           0.41447680252148    1.53113548810260   -0.58092253703119
H           1.21015980294899    1.55332085038326   -1.25233681993841
H          -0.17983261490240    0.69099549120849   -0.78915222900179
H           0.75722466345637    1.38820183000043    0.40788122236586
H          -0.20406846874779    2.34731077239096   -0.60478060291751
