    26
        -50.46422602  Gyration_radius:  2.57454617206 Dipole_moment: 3.140
 S           0.47484882382673    2.25730682428079    0.13527524136494
O           0.94329427862832    1.01257184014455   -0.47932560312034
O           0.78186646074481    2.33852398275999    1.54532027486134
O          -0.92193252597610    2.48034930972186   -0.18441004377812
O           1.31365463295886    3.42295563056083   -0.54132711543344
H           1.70091367378678    3.82544303189512    0.22917099012094
H          -2.06201464830085    1.38965454954952    0.02709268393857
O           0.32465795252676   -2.01803494388523    1.46000647336546
H           0.17261828595702   -2.68834718325122    2.12670846246946
O          -2.68814755649929    0.64412079712448    0.22677241234075
H          -3.54934193762604    1.04981361562381    0.33459748270386
O           0.74283833989965   -2.15788231655604   -2.64098833750026
H           1.09761713845706   -1.76610020168418   -3.43974587897989
H           1.42097726500692   -2.00327691070659   -1.93881541189474
O           2.25615888621537   -1.39515018630193   -0.56538159737250
H           1.84391221105161   -1.75449395922275    0.23182677724922
H           2.03898583559758   -0.44895909664119   -0.55188318594926
O          -0.69921494103985    0.25511289346964    2.24266177345663
H           0.04385812119337   -1.15274241662471    1.86339820548211
H          -0.12940486434330    1.03856790046688    2.09989128168966
H          -1.49899009299067    0.39775914092001    1.71611435840848
N          -0.75506675529049   -0.95968031318012   -0.79603366458111
H          -0.50410795854937   -1.56860313873815    0.00653414239360
H          -0.49839152976659   -1.44974525445900   -1.67713802186835
H          -1.72613988271984   -0.64067080423449   -0.71602978912644
H          -0.12344921276173   -0.10849278107083   -0.71429191024399
