    26
        -50.46422431  Gyration_radius:  2.574349043 Dipole_moment: 3.151
 S          -2.28728951709838   -0.29498940184195   -0.12581162412120
O          -1.14405776511441    0.22682257049638   -0.87845008333328
O          -2.69301055911459    0.57207724208839    0.95696257471207
O          -2.04249569184509   -1.66824849204056    0.27151151074195
O          -3.51106435901572   -0.29952514471475   -1.13718739058170
H          -4.14596792086888    0.20776826249997   -0.64200391399607
H          -0.72074420966934   -2.15112956896405    1.01530326808533
O           1.56827056695889    1.60820770854344    1.13115038490360
H           2.12952675904346    2.01243412816635    1.79340747040191
O           0.12911687595665   -2.32965427276612    1.49865462201925
H          -0.02390841844383   -3.12677371871109    2.00761432245461
O           0.76344978448678    2.06928531716359   -1.58169623248385
H           1.08915660044763    2.21232269039151   -0.68274953215808
H          -0.06941565269137    1.58322175351455   -1.46908416616053
O           2.25862063180737    0.12351707710541   -2.65724978799943
H           1.80276750811409    0.95339220162269   -2.37354188900353
H           1.91520159350082   -0.08022450822588   -3.52786243870780
O          -0.41447992802636    0.36301646016104    2.29345461304293
H          -1.29432799171991    0.50695897613637    1.88869635897427
H          -0.23127835332991   -0.58489936334115    2.22268782342714
H           0.76445914955188    1.27278941340447    1.61202048162704
N           1.25751396630737   -0.66588643955769   -0.32124818407532
H           1.79097447989123   -0.69352583020252   -1.21412330400249
H           0.25931088771650   -0.38894573559283   -0.56022944383286
H           1.22222823612294   -1.53720189256038    0.21797079358005
H           1.62744333704429    0.10919056720330    0.26180377648391
