    26
        -50.46422407  Gyration_radius:  2.57415020724 Dipole_moment: 3.148
 S          -2.15761362307151    0.82227696214573   -0.00392007273228
O          -2.70708264065509    0.03632530449689    1.07735524654478
O          -1.20246436690405    0.07559498416425   -0.82600371378353
O          -1.58104551905843    2.08609058197043    0.41338198527179
O          -3.38908193624392    1.14685193988839   -0.95170402912808
H          -4.10388838681651    0.78797041468730   -0.43620438740861
H          -0.15225360950522    2.22335525084359    1.10158159674569
O           0.73574835274372    2.18246001196734    1.54599962688736
H           0.79458205379620    2.97413583578560    2.08232758336782
O           1.19576288264029   -1.96728940522309    1.01148526494785
H           1.67453646359778   -2.51502635999785    1.63416286233506
O           0.18875821037465   -2.13439055434515   -1.66694069981569
H          -0.50166060609734   -1.47217319361004   -1.50139637778542
H           0.51082799174213   -2.37974445752644   -0.78900359422238
O           2.04892753753136   -0.55310248142335   -2.76932949336967
H           1.42438332423722   -1.26369574702765   -2.48273138290493
H           1.72498668613630   -0.24489802650896   -3.61636938644791
O          -0.38702373093003   -0.33601768986258    2.30235271400576
H           0.00959112779390    0.54519452197830    2.24473709597386
H          -1.29284342269475   -0.25736429806022    1.93909343203502
H           0.51494942452796   -1.47100371883810    1.54066420684311
N           1.36281323479233    0.36660213901256   -0.36848228994375
H           1.84845274174252    0.29986067906007   -1.28635739167165
H           0.31814086078965    0.33783467638962   -0.56342960569318
H           1.56623880155532   -0.49288209259984    0.17681149258173
H           1.55625815798447    1.20303473268419    0.19191932733678
