    26
        -50.45821574  Gyration_radius:  2.51865695174 Dipole_moment: 3.057
 S          -1.69197180629575   -1.00689686948267    0.40337129489461
O          -2.33965579400357    0.00292921121507   -0.42612904652093
O          -0.92967201386210   -0.38122304554854    1.46357749535459
O          -0.91245103408832   -1.95896418546066   -0.36414356870749
O          -2.86456152979156   -1.84669715790567    1.06732119895807
H          -2.45217981191736   -2.68121452153838    1.27215667640142
H           0.30699469902327   -1.13443410262790   -1.09715171197791
O           1.58993476174718    2.28742465112204    1.32023208347156
H           2.23311593968050    2.98454749435261    1.18552173589757
O           0.81122180632594   -0.45244658472583   -1.60633749014948
H           0.29316057058592   -0.37119507744731   -2.42734992424578
O          -1.47876010304230   -0.02165781809034   -2.96835628908614
H          -1.89553989083745   -0.01909966782004   -2.08135302389855
H          -1.92760868404434   -0.70885893169232   -3.46242921495258
O           1.32021883469294   -1.42213706280297    2.33663580869202
H           1.42054322758388   -1.03591540373799    3.20879192575634
H           0.45711609977228   -1.08992643544427    2.00090790465314
O           2.67609867023699    0.03188875836231    0.54272187712061
H           2.29633615143754   -0.23182039419334   -0.30357639855028
H           2.06114328008975    1.43272536286523    1.11418210298790
H           2.31076033732331   -0.60487985476627    1.19720017280470
N          -0.26446237135629    1.67740507830618   -0.47035360278647
H          -0.46713868234856    2.42967478031196   -1.12223230781292
H           0.28217044423518    0.89706284464624   -0.95641577969609
H           0.31526694101059    2.00918317254029    0.34777513594743
H          -1.15008004217275    1.21452578947028   -0.17456706450073
