    26
        -50.47201769  Gyration_radius:  2.5176699434 Dipole_moment: 1.415
 S           0.57743390741131    1.70510758491205   -0.87127304979399
O          -0.47985523759744    1.20201547539330   -1.72253342618703
O           1.32845956265133    0.61641892731245   -0.24558993022983
O           0.14494349932510    2.68239193502933    0.10434776316029
O           1.59298918917058    2.45046168998890   -1.82866496467731
H           2.12343315785387    2.94002799793476   -1.20924356440490
H          -0.71843813690000    1.95435822153553    1.26230801323589
O          -0.01305331885686   -1.07275039173538   -3.08433765992073
H          -0.15105024086349   -0.19653764829679   -2.67153263740037
O          -1.25146917557940    1.43312635979042    1.91332943936316
H          -1.71971675503886    2.07544663253761    2.44928034430389
O           0.97793696493433   -0.17621189610726    2.34288289727105
H           0.13557692119674    0.28549711874659    2.47049516999954
H           1.30173961067385    0.15269256810981    1.48677727538157
O           0.72071504780652   -2.77661864871133    1.83519285878056
H           1.55578660749407   -3.19917044664253    2.03851068620912
H           0.79660229600075   -1.84792587598001    2.16722554686100
O          -2.23130385025673   -0.10552686178578   -0.12797866909805
H          -1.84493595518994    0.47173901374804   -0.81030506116621
H          -0.34937462971566   -1.00030109200228   -3.97809150019846
H          -2.07930372051908    0.35913424663055    0.71353519909062
N          -0.08241455668440   -1.62749105673486   -0.44861076301218
H          -1.04308182692977   -1.22828245336499   -0.26569369603618
H           0.18624618918302   -2.30849322792363    0.29189381360273
H          -0.04687034806077   -1.98381071250966   -1.40837379496264
H           0.56900480859441   -0.80529747991318   -0.40355029017465
