    26
        -50.47201758  Gyration_radius:  2.51741086748 Dipole_moment: 1.440
 S          -1.95659656913068    0.32274408883318   -0.25711020459139
O          -1.62929058072601   -0.71441445955699   -1.21241930252071
O          -0.82953753659952    1.23048861601401   -0.04094053772153
O          -2.49433003425616   -0.16552932015584    0.99425154798862
O          -3.09918303716124    1.18879729017481   -0.92686116420618
H          -3.41325767837799    1.70360319006173   -0.19128391724733
H          -1.31949463564106   -0.87438588232841    1.85151154096204
O          -0.01700379976232   -0.05112966690734   -3.26312083560267
H          -0.68062269513882   -0.27144153702198   -2.57877886517925
O          -0.54840355574901   -1.30653182205716    2.29663896748805
H          -0.91140095011672   -1.81713627565971    3.02231608383055
O           0.81233645890311    1.11579702987951    2.13727782022032
H           0.18013184760339    1.35233414257589    1.43711766548445
H           0.53093755964770    0.23321147673660    2.42175397447602
O           3.10930682646789    1.14224169075810    0.79164518722022
H           3.46221793555661    2.03170000142097    0.83123272115780
H           2.34140379820072    1.12492496973018    1.41481845577633
O           0.34752931427707   -2.20891923272652   -0.12805129721559
H           0.17053078793979   -2.06711379809796    0.81831925322094
H          -0.46764178312051   -1.93181369237339   -0.58287303135911
H          -0.33887802100562   -0.43746963119742   -4.07811994729816
N           1.38389727392766    0.08519371362242   -0.96543453282834
H           1.39518692601504    0.11074341692910   -1.98940338194883
H           0.54540439926827    0.63601984070309   -0.65544573605031
H           1.19640740461634   -0.90463208812010   -0.64814983507718
H           2.23035037432259    0.47271793846232   -0.49889062908161
