    26
        -50.47201761  Gyration_radius:  2.51766494859 Dipole_moment: 1.433
 S          -1.82410141823538    0.15322535128523    0.80578084407082
O          -1.35257434637978   -0.39838632524001   -0.46476397928442
O          -1.18666004399672    1.41760451993406    1.10665462550946
O          -1.74689947224617   -0.82307142837200    1.87104549309196
O          -3.36032762493594    0.47485095132129    0.60513661883175
H          -3.74773539547658   -0.39363709648597    0.62518880402397
H          -0.23434155790073   -1.38341158747683    1.99134944824548
O          -0.63362265345457    3.05766456900842   -0.95506261761960
H          -0.92128851306692    2.51215258656985   -0.19556079428438
O           0.71780831410222   -1.65305959888485    2.00974167030195
H           0.84268040477387   -2.13428275380000    2.82944226018667
O           2.07830473315698   -1.20337509805361   -2.41431795013779
H           1.58335893837503   -1.76497204487956   -1.76772804161988
H           1.89475328807312   -1.57162275575731   -3.27914484826511
O           0.48274076349104   -2.41027935933359   -0.65811071873363
H          -0.30053738788483   -1.83445333346932   -0.68663003725766
H           0.78829471764723   -2.34894117052483    0.25942158088351
O           1.45233710356328    0.92027097676411    1.43230656245179
H           1.41947560790155   -0.00973710895490    1.71719220895568
H          -0.84664949715955    3.96300969693693   -0.72649323578066
H           0.54605257269122    1.25523512529348    1.55293920252712
N           0.89168400458839    0.84565269216710   -1.15931400425531
H           0.68400041630106    1.78915574848393   -1.49984919462629
H           1.33711819421708    0.91490724822414   -0.20403839947345
H          -0.02990713974367    0.36916482020120   -0.99779685835032
H           1.46603597165521    0.25633539498345   -1.79738863943212
