    26
        -50.47059130  Gyration_radius:  2.47561657566 Dipole_moment: 3.238
 S          -1.74805430165675   -0.61105120348171    1.15460526298061
O          -1.99732949117558    0.77455642117833    0.77610748858753
O          -1.08226638294343   -0.74076199237470    2.42670657728317
O          -1.10660548554629   -1.35863214384416    0.07938176903994
O          -3.17482156061657   -1.28659895937253    1.32361798927465
H          -3.43643097756504   -0.96969024843749    2.18140660376901
H           0.42951572083484   -1.81425282655124    0.07835492659039
O           0.29695867544904    2.11774928495871    0.74486855172339
H          -0.61424543981571    1.77933913805096    0.86875521253813
O           1.39177999503373   -2.05195266998725    0.06389448331115
H           1.42762465449855   -3.00942827990569    0.05589074544142
O          -1.82475857984245    0.31893018819372   -1.81225551321635
H          -1.60323715700389   -0.56378981758621   -1.46732452886066
H          -2.15005161047619    0.75468528348939   -1.00142247574313
O           2.56080495384583   -0.30340535731216   -1.59474539925383
H           3.27464565398780    0.03154863395132   -1.04799461581605
H           2.14606995356787   -1.02529714119377   -1.07484332975273
O           1.42461249689051    0.03229645080391    1.95126067578355
H           0.56101412816524   -0.23688433828881    2.32199531569662
H           1.68159543756017   -0.70678456727726    1.38438978277921
H           0.85732687211439    1.48615476806314    1.25172106344158
N           0.54906403251017    1.48653097943325   -1.75984512191018
H           1.32991905282331    0.79313500477514   -1.82209805218887
H           0.68829223914090    2.25010318858748   -2.41176697492982
H          -0.38540403698788    1.00903955402821   -1.93247049581668
H           0.50398115719984    1.84446064013476   -0.73818990082979
