    26
        -50.47059090  Gyration_radius:  2.47604022309 Dipole_moment: 3.251
 S           0.47704712367637   -2.12206509871774   -0.17731119622659
O          -0.86875005263502   -1.98010559137364   -0.71931035651569
O           0.49225919231920   -2.41927544239473    1.23329393756309
O           1.33065301324295   -0.99927302371728   -0.54803489033242
O           1.11782464444639   -3.37829673260866   -0.90680273545486
H           0.72917967004428   -4.09917705868345   -0.42303452150513
H           1.79902187645623    0.15734126401661    0.45685815930809
O          -2.17515220258755   -0.09185992269790    0.62078365514636
H          -1.86130143535300   -0.89845220597553    0.16131276573120
O           2.04672447726144    0.89377546609915    1.07250368525535
H           3.00068360810802    0.85908897226279    1.15568322011328
O           0.48856757455788    2.96781251241710    0.40504483985692
H           1.14837630559010    2.26683424763452    0.59689591386005
H           0.11401131856823    3.21007358390986    1.25449404607246
O          -0.16469999098658   -0.24901227226663   -2.57546970012127
H          -0.67982137821865   -0.98112201171486   -2.18584986404399
H           0.68315696650350   -0.35570684094080   -2.10970541949276
O          -0.20603860815377   -0.12969083342074    2.40786236092852
H           0.58564578779249    0.37671700411408    2.18321104437427
H          -1.58945186140583   -0.02327136613482    1.40969638397663
H           0.01765344853089   -1.04917582341285    2.16247729411332
N          -1.30419823953455    1.63581273895134   -1.10875477087988
H          -0.82385658251080    0.98819098622672   -1.80209916810983
H          -2.00142920871718    2.20620950213189   -1.57345199207743
H          -1.75761110996640    0.98272029075879   -0.37242549414843
H          -0.59849432703990    2.23190767556763   -0.61786721739639
