    26
        -50.46651515  Gyration_radius:  2.52857169749 Dipole_moment: 2.407
 S          -1.23272382990008   -1.05035928794880   -1.56148233778703
O           0.14041053271350   -0.53836220129173   -1.69133943985920
O          -2.19203095895220    0.01989111406226   -1.63490867012725
O          -1.36654375180790   -1.90230107082811   -0.39464511606704
O          -1.46174817128790   -2.00435523031225   -2.80330858778763
H          -1.19715226662097   -2.84468939190329   -2.44227143231039
H          -1.25552360997284   -1.10100193643058    0.97451672575234
O           2.21164817174085    1.85003042595357    1.11595327617843
H           2.14938146963674    2.41358956883891    1.88823192499549
O          -1.19930221453342   -0.55141680519537    1.80115977634454
H          -1.66149087231556   -1.05068114796326    2.47683708996553
O           1.95188947396147   -1.94174320891083   -0.35748811080417
H           1.24138181394614   -1.48922731542131   -0.85867723488076
H           2.77343065848039   -1.72085178285728   -0.79994497233414
O          -2.05091489382137    1.65784465528435    0.44518953628622
H          -1.84684498959327    0.99234894793990    1.12734882135231
H          -2.35976869333256    1.13363181728050   -0.32291405166335
O           1.56250267017037   -0.53049860222493    1.92457998369211
H           0.59127186868325   -0.52428351782608    1.98400599224501
H           1.76818791561992   -1.15306523718616    1.19806387512262
H           2.05293164389560    0.91720329589022    1.44811321241565
N           0.28815197494548    1.90554107843027   -0.71174163650900
H          -0.64823138754188    1.96749479365400   -0.19850004256504
H           1.08574708231413    1.95410762315283   -0.01829163255266
H           0.28932146203495    0.95735076739380   -1.17555409785263
H           0.36601890153553    2.63380265844331   -1.41293285125572
