    26
        -50.46947629  Gyration_radius:  2.50955321312 Dipole_moment: 3.406
 S          -0.30147696794450    2.08042694113795   -0.51985348408845
O          -1.22768378708593    1.35133105000290    0.32978932771500
O          -0.00782967277725    1.37311461725367   -1.76262278641759
O           0.90414220635451    2.48383466337581    0.17066148633740
O          -1.05743130066989    3.40821049851580   -0.93164884071505
H          -0.35823811356598    3.93703677047117   -1.30148957559034
H           1.95993898591622    1.30648958971373    0.80768302556043
O           2.28747682611150    0.42486106411629    1.08935944828868
H           2.27971396744018   -0.10121443459239    0.27067018576375
O          -0.71761826189588   -2.64986484461548    1.62411394506241
H          -0.13457270480960   -3.38452155197119    1.81990594491051
O           1.61464054132928   -0.62341684179176   -1.34418086416487
H           2.14737843945598   -0.74296655683491   -2.13237484319746
H           1.02009218454712    0.14590824635847   -1.53067755685312
O          -2.13485221363818   -0.26869234235435   -1.68661279038721
H          -2.41285783245786    0.11724282532412   -0.84859897311865
H          -1.40686955911755    0.31074709503402   -1.96950379200238
O          -0.55497177177277   -2.32886619892510   -0.94933110032654
H          -0.74562072858161   -2.58452562402583    0.62544295726128
H          -1.24995193662428   -1.71718679141804   -1.27569784647369
H           0.28115530858759   -1.85665788042452   -1.09448521503804
N          -0.04121911256356   -0.14228103027506    2.14745166366220
H           0.97630848988051    0.00338523969897    1.85432990151350
H          -0.32056857472295   -1.15499365303698    2.01606394943884
H          -0.19487118665319    0.15557746663198    3.10442605655811
H          -0.60421321474777    0.45702168265353    1.48717978629416
