    26
        -50.46651516  Gyration_radius:  2.52853211334 Dipole_moment: 2.405
 S          -0.26674145333562    0.09302522477565   -2.23174838684296
O           0.30206653183949    1.12296777529054   -1.34840636255508
O          -1.70264632669252    0.06829942130623   -2.13845793616798
O           0.37428774275825   -1.19138783654036   -2.02045466439742
O           0.12476388487663    0.51741073968722   -3.70524382909649
H           0.94632508135215    0.05026164673004   -3.82020986000019
H           0.02330465374633   -1.83483961377427   -0.60916931623925
O           0.32446195651149    1.07965222660475    2.87917331377020
H          -0.03962485724867    0.69522148437261    3.67765964244656
O          -0.24303641216663   -2.20261837578697    0.27533277380174
H          -0.13343215924853   -3.15262724880878    0.20539971066542
O          -2.55520997936917   -0.75467630377135    0.23347927349603
H          -1.86578999086820   -1.42319285706855    0.39979471389018
H          -2.47571699603202   -0.55445084737906   -0.72241142029804
O           2.69900180144900    0.52232924001045   -0.38709716761635
H           1.83120649394045    0.70216021784660   -0.80587338591275
H           3.06228915640971    1.37666276318203   -0.14710357364184
O           1.66338627197501   -0.82325927598215    1.72652947778863
H           2.17343944281256   -0.42097077292139    0.99456158295302
H           0.91692485953702    0.37331360971048    2.48456735265849
H           0.99410781820856   -1.37969648168937    1.29144034882070
N          -1.23893652675356    1.44861521262235    0.76663707959685
H          -0.64869720418502    1.37257924885958    1.64141270980918
H          -1.87559532084723    0.59368359562541    0.67828884221374
H          -1.78060857323483    2.30574050501398    0.76200594429210
H          -0.60952988539431    1.41579670211824   -0.08010686343308
