    26
        -50.47194230  Gyration_radius:  2.49791142653 Dipole_moment: 3.376
 S          -1.69213274432572   -1.03015566895578    0.98379324455964
O          -0.93982671808511   -2.02548933877049    0.24576076654783
O          -1.84495705017955    0.21545193679650    0.23976859844712
O          -1.19464264100159   -0.79858347805304    2.32602968378134
O          -3.15016957497832   -1.62806219073442    1.14821884099211
H          -3.54124889585649   -1.02901239050966    1.77517768186352
H           0.25843341754020   -0.14973304054566    2.36553817127003
O           1.32275741294266    2.47691880343207   -1.45847948979796
H           2.11415409119550    2.93850471721666   -1.17869697571661
O           1.16548606845633    0.25330582646411    2.30245466862936
H           1.53033704032881    0.21797219688258    3.18823400318043
O          -1.34202114863955   -0.85199345408120   -2.09408440443818
H          -1.70422103614603   -0.21599494744310   -1.44581206767687
H          -1.24690268051242   -1.64650101145626   -1.54159665035701
O           1.64176767792444   -1.40022069897200    0.19026467002530
H           0.75008397634800   -1.80370303624251    0.25066196812793
H           1.68564184521473   -0.79284109029796    0.95112569591972
O          -0.07771570388741    2.16973556612290    0.72716743894778
H           0.72498754568952    2.45203234761218   -0.66076515304183
H          -0.82248274074909    1.56649533009318    0.53782055790259
H           0.47792692144269    1.68165912305809    1.35437159674091
N           1.19420889836657   -0.11603613338021   -2.06176620292350
H           0.16633099519826   -0.36272148908701   -2.20452642093000
H           1.74592651539304   -0.41456761938327   -2.85813875081281
H           1.28456330548498    0.92077567655831   -1.90864097152999
H           1.49371522282081   -0.62723595631747   -1.17388050970727
