    26
        -50.45718454  Gyration_radius:  2.52086273043 Dipole_moment: 5.134
 S          -1.12877406149140   -1.20914063528449    1.37610732228780
O          -2.31825921035944   -0.42133459565510    1.04591158475214
O          -0.07731918547587   -0.43171072650086    1.97501982487082
O          -0.68912659708329   -1.98055829475943    0.22026319052960
O          -1.59841487811920   -2.26670143990063    2.45637644447634
H          -2.27449192920142   -2.73476418427805    1.97804696319543
H          -0.41285373143209   -1.03827103285846   -1.09563062577837
O          -0.12235626870834    3.14323524774494    0.03117493364870
H           0.09442776344135    3.95168322633559   -0.43540096076431
O          -0.14836933371566   -0.46787886755689   -1.85776841902868
H           0.57257496035753   -0.97383789563264   -2.25739131091171
O           1.84999182942502   -2.21400231450340   -1.03269065709959
H           1.03912744778438   -2.47782909595229   -0.57856880165927
H           2.32338833076623   -1.67385168278314   -0.38693526056581
O           2.39818071260511   -0.44513488285643    1.14048435111898
H           2.94301750131666   -0.27983339707461    1.91104127732650
H           1.46834485150775   -0.48927868696050    1.47117497622267
O           1.62003827173033    1.36577711021102   -0.73001746077824
H           1.05941802188438    0.73780742723214   -1.21872588515722
H           0.63292181920403    2.51430942858809   -0.14246524086805
H           2.04288044781226    0.82355321255838   -0.03841765811410
N          -1.86970299639080    1.33115193120390   -0.78306291384614
H          -1.30760248295402    0.79056532034641   -1.45985662225980
H          -2.09016103677569    0.65083488197154    0.02830262963644
H          -1.27703024322234    2.12836026491497   -0.41404065959057
H          -2.72985000290853    1.66684968145854   -1.20293102162133
