    26
        -50.46592454  Gyration_radius:  2.50519033437 Dipole_moment: 2.929
 S          -1.77118878858858    0.61085354937999    0.52131162084756
O          -0.94218584762007    1.78249344650725    0.70797591985366
O          -1.64096608659168   -0.37930348042335    1.57172680246697
O          -1.59657170242652    0.03108302162057   -0.80701740079362
O          -3.26748649421459    1.12392139924624    0.58109127960111
H          -3.75642502584743    0.30823239229691    0.60676674159237
H          -0.52674073418738   -1.30347154838339   -0.85400456947944
O           3.01120770107191    1.09017763741165    0.66688808631631
H           3.69932580781094    0.49870257467235    0.35781362404386
O           0.19938115739768   -1.95382951949341   -0.78416567564770
H          -0.19536482990254   -2.66904278492263   -0.25752166367549
O          -1.28662208179594   -3.03947183598878    1.24039031283590
H          -1.50499522569937   -2.09910995380540    1.38986817455765
H          -0.86409454988002   -3.33706731860935    2.04790908596784
O           0.30518294230974    0.36712777494342   -2.65538910912946
H          -0.54792273683113    0.30852323927410   -2.17970453373836
H           0.69939054688872   -0.50424048469433   -2.53859220259075
O           1.06826163728586   -0.54152512889555    1.33337268767906
H           0.17390053072453   -0.31957789357116    1.63013969749807
H           0.93486169519884   -1.12600004758302    0.55547313893799
H           2.32363745122172    0.51099856629937    1.08284540669184
N           1.11272387346993    2.14784535056789   -0.85810720555312
H           1.21824306184531    3.10857045044705   -1.16470845722001
H           0.92023739932415    1.49954625183817   -1.66958557135968
H           1.95835096859854    1.82221246152904   -0.31926845461005
H           0.27585933046777    2.06235185032393   -0.20550772511976
