    26
        -50.47460293  Gyration_radius:  2.4196051358 Dipole_moment: 1.169
 S          -0.95482756201938    0.17604064388988    1.73986036833018
O          -0.73472455599940    1.59448067973864    1.50627843698319
O           0.30595723507185   -0.53728594101759    1.93435088777747
O          -1.79678056665448   -0.44644766962196    0.74731482429296
O          -1.73219792010575    0.07935595735790    3.11503394933559
H          -1.24641175874729    0.69319955718308    3.65516489321445
H          -2.53012921679029    1.13592806069921   -0.68028980610408
O          -1.85089510267606    1.79817701167221   -0.84618795502012
H          -1.40944141845238    1.88720254199119    0.02862042347592
O           1.34653697737231   -2.11651355442773    0.12459523456978
H           0.93289636568246   -1.55551864933895    0.82598394834566
O          -0.99716971194629   -1.96125170123457   -1.29288381415752
H          -0.16403525313074   -2.29145581868086   -0.91734326299791
H          -1.44886201346951   -1.53511713752977   -0.53568840080742
O           2.20230420803810    0.15938871980778   -1.20405877189639
H           2.25095304021577    0.73605895527485   -0.40700754306879
H           2.10652689802805   -0.73934874254920   -0.84527654401137
O           1.95766564777054    1.40673577732143    1.13848281664152
H           1.85694076651470   -2.78281527338473    0.58685093505271
H           1.27482630712246    2.08615658330563    1.13690291881142
H           1.51146517594373    0.64464093669412    1.55293315871750
N          -0.17522208099291    0.32781475757085   -2.29967907684442
H           0.82348624732344    0.36958610935429   -1.92077629937588
H          -0.54581068122367   -0.64090783169676   -2.05174905064670
H          -0.79027891761660    1.02179472492021   -1.79142161982658
H          -0.19277211929220    0.49010131272450   -3.30001064077326
