    26
        -50.46802858  Gyration_radius:  2.56362163095 Dipole_moment: 2.889
 S          -1.79705688942892   -0.39471023119182    0.98134096127879
O          -1.63885130863723    0.09355094941582   -0.39097802879184
O          -1.84463054903509    0.67371544697301    1.94586915216513
O          -0.81770185729040   -1.42837581204722    1.27638767958407
O          -3.21297001109644   -1.10994641271792    1.03300726356709
H          -3.78999448448165   -0.41813470997249    1.34083867580239
H           0.68869115638815   -0.91411857147654    1.53099715077099
O           1.29563571809837    3.06376465279875   -0.53527635758403
H           2.01003120717891    3.67554956212401   -0.35530176784595
O           1.60831736282189   -0.54482118264440    1.51788299701793
H           2.18206511155361   -1.24333488360560    1.83653943974357
O          -1.05172540003230   -2.33620117996162   -1.29448290899790
H          -1.46978060612790   -1.46169326507335   -1.20000983388612
H          -0.85685085895398   -2.57354043494254   -0.37901041231887
O           1.05950500053297   -1.56623240731195   -2.72833181051596
H           0.79749232173822   -1.57725157454686   -3.64969808058158
H           0.31826963025293   -1.99125507884002   -2.23047075798396
O           0.45983770477488    2.04746862613165    1.78631797539890
H           0.89899969830414    2.83843876330053    0.33910429000784
H          -0.44564391680386    1.69583160696564    1.88537926561954
H           1.03861774494998    1.29427770142231    1.95651194225514
N           0.93321920588195    0.44253875846527   -0.95196011949281
H           1.19647339823377    1.43977868385947   -1.07174006115987
H           1.39771144491802    0.07053133870805   -0.10384838628909
H          -0.10322346694425    0.39741224162991   -0.77297943474469
H           1.14356265326430   -0.17324261754300   -1.76608886305090
