    26
        -50.47250197  Gyration_radius:  2.48739778561 Dipole_moment: 2.904
 S          -2.17353729912509   -0.30924221956201    0.56893301943068
O          -2.42989054228864    0.09925768285451   -0.80703321675743
O          -1.12540419790196    0.48195478491022    1.18442592615239
O          -1.95854809131147   -1.73910859911574    0.68065153377583
O          -3.49661124739293    0.00498829409349    1.38142354015385
H          -4.09912499292177   -0.62444412569834    1.00033067475043
H          -0.54558494302135   -2.20420255391152    0.11066095513039
O           0.43869763772401    2.51864206931830    0.35156134038820
H          -0.18463688965054    1.96333792325609    0.85537226135820
O           0.36327882005688   -2.46709757309017   -0.19140905252501
H           0.30276325974202   -3.39193719838589   -0.43503570025115
O           1.58372623881704   -0.52232222503503   -1.67270208672683
H           1.17577554291754   -1.28505096632844   -1.22061841089819
H           2.11020708290010   -0.07017509314210   -0.98889845609866
O           2.58358343430317    0.79709118843474    0.52840413347660
H           2.06615755865786    0.18687112300447    1.13045146349136
H           3.44362789396708    0.91135002339664    0.93305705279964
O           1.08984098144228   -0.81410494414332    1.92742858495560
H           1.30495923291327    2.08676068244467    0.46645584542679
H           0.23334117490181   -0.35112377674211    1.83163222500058
H           1.00594459720672   -1.59580660258748    1.36180742934460
N          -0.34151788138867    1.27778174672711   -1.82988087957710
H          -0.50019499467370    1.75575624123590   -2.70922914911538
H           0.41446317991931    0.53595705307941   -1.91433347014631
H          -0.03175505660669    1.94384462865732   -1.05928344723389
H          -1.22956048918997    0.81102244633283   -1.48417211630132
