    26
        -50.45935293  Gyration_radius:  2.53859689199 Dipole_moment: 3.988
 S          -1.98334980224511    0.07626736132559    0.20151194865921
O          -1.90058936488867    0.39725126280423   -1.23016121815475
O          -1.03570544538300    0.86129309001937    0.95091273427924
O          -1.89977175180377   -1.35174933049314    0.44092939233897
O          -3.44294534794667    0.49446085452367    0.67052344450877
H          -3.88168916095517   -0.34262459391412    0.79046123700416
H          -0.29082033688872   -1.58812307398499    0.07593738129906
O           1.46469477376795    2.68919440651094    0.52089961888411
H           0.71258665893028    3.25640777799095    0.70410243566178
O           0.56184511543440   -1.62383074201748   -0.41606034523523
H           0.28024101689251   -1.92303012074999   -1.30339151831381
O          -0.94882833620275   -1.68127888043625   -2.63142132985240
H          -1.60296008135036   -2.38151468525954   -2.64750712520157
H          -1.39122568626786   -0.91521470346746   -2.20828633329104
O           2.36329506208076   -1.39211559898930    1.67048595044943
H           3.24415434833883   -1.57487911333234    1.34140672762316
H           1.74082118897147   -1.63459651507406    0.96784880211180
O           1.20756649921327    0.99303535505890    2.46939802092739
H           1.51746200623696    2.08774217898568    1.32097778967090
H           0.30213930996576    0.85216433344721    2.14413637846614
H           1.67106251693576    0.14929027057796    2.33496114635326
N           0.68177438334785    0.92462922358960   -1.25412602430429
H           0.86551270563205   -0.03453169032169   -0.86553971616458
H           1.01349765508594    1.67102576688710   -0.55366996719900
H           1.11688860110749    1.03835357533232   -2.16444051051276
H          -0.36565651790416    0.95237356099911   -1.32988891998969
