    26
        -50.47217141  Gyration_radius:  2.47547493904 Dipole_moment: 1.724
 S          -0.75772928245553    0.73420494138561   -0.60604120404059
O          -0.10842549741741    1.93291150088139   -0.09396673176309
O          -1.25759826849451   -0.12221307758376    0.45330101340218
O           0.14347669200632   -0.00703187534600   -1.49372978869232
O          -1.99159431370701    1.16379069487365   -1.45477455112738
H          -1.65139323739909    1.91654744540245   -1.98363285770754
H          -0.69570411862344   -1.72056478715984    0.85902768221814
O           1.62696689427039    1.11426045446717    1.78387004344360
H           1.07476480795103    1.60784556204026    1.14546370038471
O          -0.13321641787555   -2.52048293909647    0.87976667393190
H          -0.28890872066805   -2.91441375012118    0.00160950108928
O          -0.60489196948098   -2.56757950017073   -1.78578879097071
H          -0.33975387812725   -1.62561534301269   -1.79330377413545
H          -1.48706891845462   -2.59680190305251   -2.15835378525711
O          -0.64153524099726    3.25890033881616   -2.28234627362512
H          -1.00271934896220    4.12790843132386   -2.09205721661967
H          -0.20490163516471    2.95227858288943   -1.46126635989804
O          -0.48350869521704    0.01334844894711    3.03117443160600
H           0.98980167520212    0.81387026087199    2.46492086177365
H          -0.92608258735200    0.07907379064499    2.16429336830772
H          -0.48834678766551   -0.91919578995368    3.25809104412840
N           1.88445524205781   -0.96038538665594    0.23263986484304
H           1.36853628099871   -0.57452360310289   -0.59858612811479
H           2.79953606360164   -1.31627520952628   -0.02023116796852
H           1.93388772009376   -0.15013888497441    0.93920371404143
H           1.24195353189730   -1.71971840281246    0.61071671065274
