    26
        -50.46956789  Gyration_radius:  2.48857577013 Dipole_moment: 4.337
 S          -1.59405988127806   -0.27864610828684    0.89595610485974
O          -1.31582301697755    0.38564054622528    2.13460401407887
O          -1.02010362501080   -1.62113575303927    0.79533724086191
O          -1.15931823186672    0.52052208221018   -0.26739906937666
O          -3.14590540590892   -0.42594669696142    0.75409300651081
H          -3.23607753381031   -0.93871668056717   -0.06798901979384
H          -0.27705120097323    1.86391558710181    0.05708215286238
O           0.36765794287382    2.59181484149966    0.23391382155755
H          -0.14095821714278    3.30604571895451    0.61998577706303
O           1.63976386091317   -1.66858501260578    0.65804338311046
H           0.71262270003126   -1.91298983580695    0.84675695477494
O          -2.57679810000057   -2.18717344280890   -1.19737551925769
H          -2.99172719527110   -3.04679946545335   -1.09875042988340
H          -1.86876914443529   -2.14146269955006   -0.51742218199907
O           2.33562062681126    1.86501898963079   -1.47804923951108
H           3.11234624874784    1.82583766987173   -0.91604240876123
H           1.64626069893178    2.31717205450412   -0.95509710578968
O           1.36233523683493    0.64063435679544    1.97120242551049
H           1.29040639887587    1.44580326873803    1.43827717340421
H           0.44862316130763    0.48194029972139    2.27022771844094
H           1.78280116152880   -0.88364555135545    1.23193405539002
N           0.93404279870532   -0.43829554760776   -1.51703192632100
H           1.54243159494966    0.39766093024672   -1.67558622562375
H           0.00962634876913   -0.09016088763357   -1.13566445762855
H           0.79463365347243   -0.97538688051154   -2.36509862050691
H           1.34741910993089   -1.03306176331698   -0.71590761398083
