    26
        -50.46956806  Gyration_radius:  2.48846493009 Dipole_moment: 4.346
 S           1.34941876728794    0.71671283034771   -1.04429185429594
O           1.76346893669415    1.81425499098594   -0.22165876793473
O           0.13873185343523    0.97704605088450   -1.82430226088699
O           1.16067473935526   -0.51984163028521   -0.25916391335117
O           2.49725124625492    0.40286907977896   -2.06113496583099
H           2.10680533477250   -0.29737653257155   -2.61264143663380
H           1.23885518318535   -0.37368364716207    1.37201740235730
O           1.14599064021804   -0.27159828573831    2.35066832231643
H           2.03130427183459   -0.12249680032316    2.68522786808438
O          -2.07699877151063    1.20791362978462   -0.36360872665856
H          -1.41310718503379    1.31969672019429   -1.07191062965506
O          -1.23293684562289   -1.51653118483673    2.70050275176843
H          -0.31146738587951   -1.19529259256043    2.73090221180269
H          -1.75789153621902   -0.86219345152099    3.16640261671312
O           0.64234406592520   -1.04244812193956   -3.36741638411747
H           0.53919917554325   -0.82236334455803   -4.29575251854560
H           0.24802124720081   -0.29847223031938   -2.86056638784992
O          -0.31030918404332    1.95566595940227    1.49448171580304
H          -1.63956521352112    1.61651690648103    0.41595709975462
H           0.05906502999635    1.26064895115634    2.05834230598095
H           0.41452542788553    2.15760320126800    0.87541477794687
N          -1.33915095668657   -1.25213113455883    0.01910694679995
H          -1.42107128901141   -1.50263553247715    1.03134602280370
H          -0.31441788316737   -1.07808965995065   -0.18266584544232
H          -1.70703293917290   -1.97795587469312   -0.58499253869175
H          -1.81170669965406   -0.29581827685592   -0.15026380225945
