    26
        -50.45572475  Gyration_radius:  2.50374757526 Dipole_moment: 3.214
 S          -0.09850907509853   -0.49157871143129    1.59190445429300
O           0.67040739123726    0.73600477742319    1.48842961597298
O           0.61631922050615   -1.65321443142519    1.10328101779604
O          -1.39423576400737   -0.35699164896634    0.90465366269047
O          -0.40993614064139   -0.69145661115687    3.10749227174973
H          -0.90179690471798   -1.53547600858223    3.10273360768393
H          -1.69725716027886    0.70251958650785   -0.03801499796675
O           2.54476868324238    1.32219595853485   -0.33588714618363
H           1.96196580028193    1.01762329403411    0.38924165592208
O          -0.99518675554738    0.08041399897606   -2.74232730871509
H          -1.59337015932785   -0.65142003683563   -2.90277247465839
O          -1.79243675752199    1.42453124731703   -0.78656839775454
H          -1.05886615456675    2.11697102817030   -0.56193200663565
H          -1.49745843300482    0.92191662324633   -1.66538617370809
O          -1.54552074308294   -2.85128309486301    2.10226104861541
H          -2.13070586699446   -2.29824292311928    1.57316452160236
H          -0.69029663434449   -2.82057486905648    1.64149258159966
O           0.15157261170696    2.85318685817291   -0.02044365768148
H           0.29971308043952    2.25989545571526    0.74571383334638
H           3.41258622460516    1.44037762573776    0.05286060495085
H           0.94062405661136    2.73096947414633   -0.56530515521197
N           1.10550702344899   -0.90241023604883   -1.60607889348023
H           1.59658238066891   -1.63940845381213   -2.09709875783626
H           0.87953581344497   -1.25303740658872   -0.67324897120095
H           1.76210192213717   -0.13728727288258   -1.46950552281028
H          -0.13610767918845   -0.32422421321511   -2.33865941236172
