    26
        -50.45572480  Gyration_radius:  2.5036178581 Dipole_moment: 3.215
 S           0.08629108608124    0.15569353376446    1.65986475028938
O           1.38002967219445   -0.22526335303023    1.12153632415655
O          -0.87715243036078   -0.92614051470896    1.64492216331034
O          -0.44896750850499    1.33195483213196    0.95305462887463
O           0.33347783763374    0.59089838799098    3.13749880933695
H          -0.57043718499167    0.80854684455558    3.43747724310252
H           0.06311873237537    1.80722099291238   -0.31699513600962
O           1.86312155220457   -2.06672271077082   -0.76556307060715
H           1.65960056375654   -1.50943884088945    0.01300044545612
O          -1.19542721316424    0.61064616475773   -2.59236294361256
H          -2.08772135951456    0.94290037881238   -2.48025399914875
O          -2.28275824333871    0.90096217999901    2.98452996508860
H          -2.16409517524507    1.54697873693154    2.27962192306050
H          -2.14171096886458    0.03894505742087    2.55842639131351
O           0.41103842911448    2.01263167764851   -1.28031721524026
H          -0.24158982006928    1.47238522276654   -1.90814199424969
H           1.33418705529431    1.54977057768210   -1.31768751729057
O           2.55853417536512    0.68875868836004   -1.07053140668225
H           2.51381265262822   -0.16569544354491   -1.52035966482186
H           2.34852388410790    0.47522012282402   -0.13717035755273
H           2.38040468384025   -2.80332008496884   -0.43678705616062
N          -0.99856041079417   -1.51887056947746   -1.14416686383785
H          -0.06653400389588   -1.89951630561382   -1.29124409002595
H          -1.66160340857294   -2.26336520439318   -1.32163504392600
H          -1.05702366033920   -1.28647747947629   -0.15082906900910
H          -1.13855891696803   -0.26870287163803   -2.05588720581725
