    26
        -50.46489132  Gyration_radius:  2.56041716007 Dipole_moment: 3.832
 S          -1.96519390378491    0.31710139352145    0.06964902150900
O          -1.40155290141089   -0.72437763560985    0.92688631316554
O          -1.27348602776847    0.38493765473901   -1.20320055901425
O          -2.07158166240903    1.58556634966165    0.75728787234293
O          -3.45138335273725   -0.12603915450923   -0.26008614344298
H          -3.94803772118195    0.25229129801610    0.45868607042843
H          -0.97553841570042    2.61178090466366   -0.08101821771207
O          -0.29627852236182    2.96505431896901   -0.68756726311247
H          -0.48671352217056    2.53477250435377   -1.52542134926389
O           0.60198777691520   -2.41373833356520    0.79583319895573
H          -0.25205436105742   -1.92639383934513    0.83842659490313
O           1.61669823000842   -2.97149316304637   -1.85282828621698
H           1.23989368391242   -3.09079365491581   -0.97134996901850
H           1.41662674415471   -3.76716726198213   -2.34669054363421
O           1.90393824810146    1.80799463498849    0.32748043784750
H           1.49918914961030    1.53414096855585    1.17586971854609
H           1.24144558569851    2.41802878012030   -0.06609584227896
O           0.23386154082564    0.91582000202528    2.26290713052840
H          -0.36014060525710    0.26178048941192    1.84905795665254
H           0.93738746672644   -2.42413408605277    1.69466229061271
H          -0.32774978020428    1.68208291700639    2.40799899444861
N           1.24548907380977   -0.36601718595512   -0.93149928221631
H           1.73486917487318   -0.72740167144625   -1.74730286317036
H           1.20406809122326   -1.12560087752915   -0.22620952031619
H           1.68458216548850    0.51471383482758   -0.49666849901893
H           0.24967383451421   -0.12290917697345   -1.16880724136984
