    26
        -50.45862119  Gyration_radius:  2.63234326052 Dipole_moment: 3.471
 S          -0.54170794108099   -1.82972475203340   -1.29116813059972
O           0.76771255416369   -1.90614952451461   -1.89792975290315
O          -1.05595550711915   -0.46930739929883   -1.18715089569899
O          -0.62472354098138   -2.53063426487858   -0.02005034932999
O          -1.53004384893991   -2.57070099636634   -2.29155386059962
H          -0.97339787011678   -3.29449965854588   -2.55629673413257
H           0.15730298468130   -1.87672943420065    1.15400721176310
O           0.73487017235683   -1.48254635044613    1.87107525280938
H           0.99171069953215   -2.22566162370461    2.41991793049746
O           2.00230442381260    2.20551279916859   -0.44868626324931
H           2.78459778025932    2.58528020990905   -0.04805889790360
O          -0.27341870098786    0.79866205925732    2.84633464119881
H           0.41644397508820    1.13663774690456    3.41932165955572
H           0.01787152467801   -0.09495088440762    2.55957515971098
O          -2.75089470775497    1.70211660825470   -1.30711770342527
H          -3.28732784285478    1.80590706283653   -2.09344923903366
H          -2.32188985996948    0.83344346157720   -1.38309532779108
O           2.21683305827647   -0.41243996440459   -0.24963242407118
H           1.84564827014407   -0.74924857614344    0.57950394491738
H           1.78989471090655   -0.94162525559170   -0.95425619685261
H           2.15774485205988    1.22717419253004   -0.48465937014053
N          -0.50371743333547    1.64264172621798    0.28852100251495
H           0.41051558511020    2.06254796155069    0.01233764319178
H          -0.52526332221121    1.44489785454896    1.31146951627920
H          -1.29996989935484    2.20736523395529   -0.01554691763851
H          -0.60514011636909    0.73203177778737   -0.23341188907737
