    26
        -50.46313955  Gyration_radius:  2.55769664975 Dipole_moment: 3.440
 S           0.94627936331548    0.82115818111474   -1.86730049146067
O          -0.17958724460070    1.44556232783775   -1.15898037295987
O           0.65724701130997   -0.55598939048327   -2.16441926094339
O           2.19867823749837    1.05383022734022   -1.17063135413641
O           1.08186541018504    1.59349563506546   -3.24344113491939
H           1.64217120953049    2.31945561006452   -2.99052358204566
H           2.15453443455508    0.40775871006988    0.28550363613296
O           2.05949607654398   -0.01481181656660    1.18022346923125
H           2.92676641223146    0.04105842626600    1.58589324846547
O          -1.14706674679813   -2.67219509264958    0.31319612648806
H          -1.15518100348132   -2.92716896859505    1.23678758486432
O          -2.31330540994681    0.95490648935872    2.04705539750686
H          -1.44723849309791    1.42869818069800    1.92216526693394
H          -2.26317609164993    0.52564309574053    2.90192155860243
O           0.07275653515568    1.89649323134927    1.48451605630316
H          -0.00543121565008    1.94714090650570    0.51351098390871
H           0.76393138394942    1.22980009004208    1.63011561017004
O           1.35726548769168   -2.28148179235373   -0.26189593006354
H           1.20721500773044   -1.77592076430923   -1.08538630553097
H           1.66061008312942   -1.61933329318034    0.38151933554980
H          -0.18370704439492   -2.64438293161469    0.04481117515296
N          -2.01846558605490   -0.24147538992996   -0.32643186594071
H          -1.65820182237514   -1.21967785546211   -0.14380751352679
H          -2.28531862375296    0.19496167948633    0.59276357993470
H          -1.26063661254439    0.36788821663495   -0.74912265494637
H          -2.81150075844243   -0.27541368243738   -0.95804257277693
