    26
        -50.44933966  Gyration_radius:  2.87409549379 Dipole_moment: 5.575
 S           0.86485240848075   -2.47059163864150    1.63637903256594
O           1.88800872508290   -2.46645821902461    0.58395843826811
O          -0.47392922231763   -2.55257388014365    1.11121720818244
O           1.06506573120609   -1.35415432824452    2.55230366010293
O           1.12072100190033   -3.78996484684710    2.47994820832937
H           2.01138390704530   -3.66481549170590    2.79381288997211
H           0.80908052782844    0.04403905906946    1.90351357254604
O          -0.48276760105361    1.36857241656088   -2.38395712928958
H          -1.02342842413132    0.90835606678992   -3.02745890489377
O           0.72584365869185    0.91563200254184    1.41677821968686
H           1.15081576988732    1.56866624424976    1.97488884815661
O          -1.46455492881390   -1.23860663898827   -0.94449386048766
H          -1.26012974352045   -1.87327744356517   -0.22294552625355
H          -1.91803186251816   -0.50287139120118   -0.51106058455662
O          -1.03285401518843    3.83656369452768   -1.08932882599229
H          -1.42462069038731    4.53983247919393   -1.60822341368011
H          -0.64752818183707    3.20438126911063   -1.71566488847480
O          -1.63382294446557    1.36711240171027    0.09706753797174
H          -1.68990501680322    2.32835025246149   -0.00062044799863
H          -0.93302069470299    1.23839553263385   -1.52252502325489
H          -0.89524920939499    1.21051494757079    0.71248865549563
N           1.06960249636643   -0.51152145551939   -0.87401945299781
H           1.06555349272325    0.25610802812864   -0.18000778682245
H           0.05306211298493   -0.77463350474996   -1.06776909079903
H           1.54177249540526   -0.22985681004710   -1.72707725726206
H           1.51408019753890   -1.35719876588227   -0.38720410848447
