    26
        -50.46488823  Gyration_radius:  2.55629521227 Dipole_moment: 3.793
 S          -1.71032840261684    0.46641535995980    0.87485889708219
O          -0.78013845054843   -0.39527087670337    1.60235060718093
O          -1.67344010673619    0.19860341466181   -0.54997538672716
O          -1.54275157387632    1.86064120905436    1.22234597336390
O          -3.16616772154429    0.06785383745952    1.35995524261853
H          -3.29869926174412    0.63426966649807    2.11357268043750
H          -0.98285265943042    2.59124859959267   -0.23096972211990
O          -0.66473920679641    2.75065350726667   -1.14053902135248
H          -1.19852811113266    2.16156236382002   -1.68032046380912
O           0.97319244713836   -2.23608963164934    0.95846779226093
H           0.22678685591819   -1.67532340742953    1.27133472722794
O           0.61792909202777   -3.41128557910642   -1.65553758598243
H           0.71288288724677   -3.31044677642721   -0.69950004783857
H           0.13782200000434   -4.22741825140532   -1.79843688589666
O           1.79869541183410    1.69233163258923   -0.98239499608192
H           1.83141223696010    1.64473705265779   -0.00487582474865
H           1.00828496322028    2.24635551419659   -1.16693300810271
O           1.21711087550321    1.38330461329550    1.64248078868201
H           0.74797311917295    2.19882635692323    1.83874138697317
H           0.52992884788877    0.69378295496334    1.70471594059662
H           1.67729856276173   -2.10851613674799    1.59738449326797
N           0.72019924511487   -0.65099682764934   -1.27982344985782
H           1.02902365178785   -1.23806382665951   -0.48259845284193
H          -0.28225057608487   -0.39346785195030   -1.08961741022807
H           1.27806081154645    0.26899917150215   -1.29938437694981
H           0.79329507244848   -1.21270608861375   -2.12530189718087
