    26
        -50.46313938  Gyration_radius:  2.55686499746 Dipole_moment: 3.403
 S          -1.85123289034395   -1.11010093636919    0.62000427643031
O          -2.31779351216549    0.05066705682971   -0.08973388496575
O          -0.75411079987328   -0.75361757074128    1.52989387007578
O          -1.49459952208478   -2.24336206044612   -0.21458412140066
O          -3.03563509029976   -1.62203275194165    1.53858805032214
H          -2.81676586260261   -2.54398082723703    1.62305892108812
H          -0.23465854730677   -1.88994955172126   -1.12470920215165
O           0.55232007186699   -1.60528001199286   -1.66104833066248
H           0.71179663914781   -2.31716219728648   -2.28367863226739
O           0.07646255250322    2.61007379916347   -1.31382140422501
H           0.89816033241515    2.72228678631503   -1.79378635987255
O           2.74318146334302    0.93011388197981    1.43553631906066
H           3.44568482721446    1.12078117341141    0.81284783854976
H           2.48729092089402   -0.01948045248171    1.28442259983558
O           1.75861117772128   -1.42798930848153    0.82955545110902
H           0.87594314333373   -1.33581850933143    1.23422323473790
H           1.57439432989231   -1.50600549349454   -0.12096164057808
O          -1.06348099426289    0.53474068796269   -2.38725341188634
H          -0.43024536118017    1.89755519237541   -1.79952011617713
H          -0.40887090282763   -0.17915327150054   -2.30922438053855
H          -1.69676200373127    0.37035369654240   -1.66048615022707
N           0.18891292312390    1.67720465413544    1.17557825723524
H          -0.19940050153255    2.33269827263189    1.84532648919871
H           1.21399234919388    1.51856316293041    1.35164210268742
H          -0.29226073234320    0.73897972742384    1.28563224103969
H           0.06906598990738    2.04991483130411    0.19249797358841
