    26
        -50.46771574  Gyration_radius:  2.50485631304 Dipole_moment: 3.804
 S          -0.80604799368969   -1.22890666589874    1.52868064109072
O           0.43079590674523   -0.45947076560598    1.43489631490822
O          -0.59848631187591   -2.63015480995638    1.76184994627970
O          -1.67884825402335   -0.93009472869929    0.39514807698157
O          -1.57548305924087   -0.67086180590430    2.80360593059906
H          -1.36876788584634   -1.32642569901003    3.46133728680112
H          -1.67366770106661    0.45764438019402   -0.33478803102373
O           2.14959691026572    2.52904364924586   -0.23645258323047
H           2.86258047685701    2.08543158057514    0.22685050814201
O          -1.64028093165187    1.30729473868807   -0.85692725126069
H          -2.51097108314359    1.40825220851729   -1.24393299232505
O          -0.61061682335575   -2.99694590156839   -0.92821036603710
H          -1.22310503261668   -2.28376307074556   -0.68316228635725
H          -0.47255582742126   -3.45327042780615   -0.08744692968081
O           1.47711112534740   -1.35221386101459   -0.81939152220220
H           1.25926109143879   -1.08401660723869    0.09828901293265
H           0.82858444387431   -2.06452668481075   -1.02511450248105
O           0.03802630218451    2.16016953173579    1.26795450151564
H          -0.71109321464101    2.17431782989679    0.65932594335375
H           0.18865597327563    1.21089042148077    1.46257021447389
H           1.38546326162484    2.54300644105469    0.40355371954436
N           0.84620440398623    0.92686473623815   -1.88913007642926
H           1.11836391196948   -0.06180431363124   -1.54016429730426
H           0.99294699904393    1.02420572115494   -2.88718271339978
H          -0.14793314190806    1.10104883660406   -1.63234711943058
H           1.44026647389008    1.61428526647999   -1.33981141542797
