    26
        -50.46495952  Gyration_radius:  2.59776501464 Dipole_moment: 2.446
 S           1.38677113343888   -1.13137248572268   -1.28910405714396
O           0.66767812966517    0.11066955018745   -1.60323262576223
O           0.48444659482963   -2.25206236770733   -1.20894993207652
O           2.24039343149662   -0.96768252048430   -0.12792750638558
O           2.36511000391452   -1.39367645856470   -2.50805492999780
H           3.13167531580813   -0.88023320948471   -2.27008919459919
H           1.26986566953692   -0.90894166840131    1.13149547455381
O          -2.13285535284148    2.15741433655858    1.14465077995264
H          -2.70556201084225    2.31044324310203    1.89663555348534
O           0.55721633887650   -0.90379800198419    1.82496490698082
H           0.63023537743179   -1.74602608990988    2.27671540975026
O           1.56781978282240    2.31806461078550   -0.42430442006264
H           1.32203621882695    1.47992625253939   -0.86773107523776
H           1.15047767567401    3.01804605713955   -0.92986055920728
O          -2.16473888172150   -2.46578230351759   -1.07200856402367
H          -1.18837846127991   -2.54869886268689   -1.12732791789565
H          -2.49446033834485   -2.66229313100365   -1.94997824215492
O           0.35832332113238    1.94364153518593    1.97165097603727
H           0.90756961450952    2.16065121457225    1.19035264496702
H          -1.20197735951372    2.20936455451858    1.49054057456013
H           0.53369656543868    1.01105170819666    2.15147144831823
N          -1.36848013863913   -0.16485934279509    0.06143962792497
H          -0.67297946121688    0.06315200222846   -0.69020096038310
H          -1.97605422950767   -0.92505105001122   -0.29720849120009
H          -0.79592443516007   -0.52806753754957    0.85212650129025
H          -1.87190450432069    0.69611998480540    0.37393458829866
