    26
        -50.46495971  Gyration_radius:  2.59774195664 Dipole_moment: 2.444
 S           0.33928966619844    1.34124615100933   -1.71748454365610
O          -0.86212704897549    2.04982844794940   -1.35571463739539
O           0.11785319396836   -0.11107330908961   -1.73113402013693
O           1.50108522282007    1.69060239461076   -0.92246118810071
O           0.70077113323737    1.74537443695178   -3.20653983051488
H           1.64150228329964    1.59739146659831   -3.23717771110475
H           1.08287359977998    1.47921689560150    0.59779583660019
O          -0.61829690291182   -2.58128301918376    1.86185505315738
H          -0.81444886054980   -2.81524238309687    2.76944732691812
O           0.68861151340579    1.32191768964460    1.49707982010484
H           0.55785184372348    2.19191063120371    1.87762738742251
O           2.14696737201287   -1.61419948451888   -0.89814092950714
H           1.91105018741878   -2.48945261167261   -1.21120078893254
H           1.45969311591004   -1.00795509250925   -1.24423851095443
O          -3.18495156302334    1.29774568529953   -0.29710485482170
H          -3.82479301974148    1.21999575625029   -1.00614470704718
H          -2.39424194564105    1.72178843948774   -0.69493631898554
O           1.70107553953551   -1.33776483721550    1.76043841601006
H           0.31261732651371   -2.23168067995048    1.86092069917768
H           2.01746754356856   -1.45769438278155    0.84133202343857
H           1.53568206909234   -0.39026210465626    1.84824718911401
N          -1.22701738795698   -0.34157825362767    0.53394946236969
H          -2.16628208897864    0.07547271615673    0.39430780172857
H          -1.21942124741645   -1.26667876675043    1.02030109468838
H          -0.77120621271692   -0.41375183329429   -0.40828048349622
H          -0.63160533257569    0.32612603754751    1.06725639387904
