    26
        -50.47163744  Gyration_radius:  2.39720984574 Dipole_moment: 4.640
 S          -1.65567872150884    0.56251389276538   -0.38306026303757
O          -0.38338769529522    0.82047197405188   -1.03796914709041
O          -1.45451189327036   -0.08288976094215    0.90757146591594
O          -2.63850332649015   -0.07590714298987   -1.21664927658784
O          -2.26539568301625    2.01129832888942   -0.06075725617480
H          -3.08471536845421    1.98887170510310   -0.54452104006933
H          -2.26870758127942   -1.75303506361004   -1.08942210397962
O           2.28206334103957    0.83385411709238   -1.44780789600329
H           1.33414327914132    1.05701427335600   -1.46601746301719
O          -1.85504299702408   -2.60656575550119   -0.86109168036401
H          -1.98827935248456   -2.71534804162382    0.08283354293944
O          -0.08974396043401    2.02937535250587    1.68853619679069
H          -0.65630744045531    1.24285340906423    1.54142549342540
H          -0.43949027820467    2.68938685322295    1.08575455634354
O           0.79028776957795   -1.55348752163801    1.25418896319062
H           0.86632577990344   -1.80235405296533    0.30222152149773
H          -0.09105771914622   -1.13771213608294    1.31296589533233
O           0.62038143676403   -1.66601343829294   -1.39355516379157
H          -0.15124986682313   -2.26128587767125   -1.42327398174510
H           0.22655961314235   -0.77463405353090   -1.39731506393466
H           2.32655071550936   -0.05919070873079   -1.80631230416899
N           2.15000760946337    0.66182325175048    1.20541386169214
H           1.38648835395987    1.34308706599560    1.44438636557583
H           2.96287071732836    0.78591711636203    1.79749693613470
H           1.69978545940135   -0.31275296392472    1.32344703927423
H           2.37660778864739    0.77470916731954    0.18151080185972
