    26
        -50.46186223  Gyration_radius:  2.40664974461 Dipole_moment: 3.181
 S          -1.76230363268112   -0.32934726654334    0.06849429101191
O          -1.69951655773488    0.99431393407718   -0.53250491293487
O          -0.98627736070756   -0.40661116408860    1.29237919481810
O          -1.41796045801510   -1.36624247979729   -0.88914415764718
O          -3.26295676400107   -0.59376773003340    0.47911263198244
H          -3.63353767973457   -0.88400242204517   -0.34687259117461
H           0.01718518669774   -2.20312132584682   -0.65829709946336
O           0.08267387031147    0.46297597355499   -2.36463540695281
H          -0.25861058208737   -0.37264061191934   -2.69781796387048
O           0.64274764002210   -2.32799668896586    2.20030680447474
H          -0.08311523748560   -1.70188854544842    2.01512201456090
O           0.93940740710901   -2.47167062294855   -0.44406409382698
H           0.93770452798087   -2.62318073490254    0.52823867683163
H           1.67512750922209   -1.26350820917381   -0.69194510837437
O           2.02146123690180   -0.26602245294364   -0.85702791915400
H           1.81548006525839    0.25918094559228    0.05691884650921
H           1.35850958793223    0.10653701107992   -1.53607621788306
O           1.30467100294126    0.91246618283630    1.21270547383110
H           0.44985806743938    0.45434991467568    1.36966952360460
H           1.30078412481886   -1.83217475093374    2.69217744050000
H           1.03586914373669    1.81929879121047    0.89335761443457
N           0.21592727773415    3.06627972669012    0.12084816625324
H           0.60236593825477    3.41197890057296   -0.74861623864701
H          -0.61633101808312    2.52389807522634   -0.10854076402462
H          -0.60340778167482    0.76690479739397   -1.72450364605015
H          -0.07575552418408    3.86399076284249    0.67071544125159
