    26
        -50.45993159  Gyration_radius:  2.42537109821 Dipole_moment: 7.475
 S          -0.52289560121419   -2.06244305234603   -0.18170778321913
O          -0.33729915632923   -1.74358691140246    1.25395193851226
O          -0.65126136370567   -3.45024028377818   -0.45530301303828
O           0.80017674926802   -1.50854502117246   -0.88231384103166
O          -1.57504586819546   -1.20966451492004   -0.73496927596293
H          -1.14671401116241   -0.01374908495711   -1.74877349408118
H           1.49282786228067   -1.61650105576449   -0.19062915291750
O           1.74632210864281    1.44656213312267    0.97427420900451
H           2.34564774603710    2.17567008341721    1.13756325552055
O          -1.00052184207436    0.81076377484424   -2.28059314268545
H          -1.11652545872127    0.55227392700747   -3.19595156495282
O           2.27556061779627   -1.35071527353511    1.26450098163242
H           1.42417663321793   -1.64589153595495    1.63243896997624
H           2.27434730754168   -0.38305043307372    1.32537359587048
O          -2.72847146508749    1.10742894406544   -0.05951585318087
H          -2.64200011751913    0.15543958747346   -0.26477675006934
H          -2.40897967058505    1.54477476364318   -0.85879175636325
O           1.58493449461744    1.05758245793929   -1.59103220287252
H           1.70291011858670    0.09896551766639   -1.62086080244711
H           0.65650280735760    1.18163127705453   -1.87998080968542
H           1.71086110141531    1.33694462412334   -0.02222560890296
N          -0.77847882876445    0.73139905388595    1.69101455712779
H          -0.64435819927602   -0.34067463200721    1.53333469441263
H          -1.55225937276330    1.03608862274507    1.03486481792493
H          -1.03787976939044    0.90758265635905    2.65571872661465
H           0.12842319802685    1.18195436556711    1.46438931481316
