    26
        -50.46186225  Gyration_radius:  2.40671085489 Dipole_moment: 3.171
 S          -1.76581185153061   -0.22168488574599    0.22573161681877
O          -1.66189001465770    1.16244974555457   -0.21089749672647
O          -0.87500663510124   -0.50877040627375    1.33492293383402
O          -1.60573878570406   -1.14438526343528   -0.88497402408958
O          -3.23163735246001   -0.43979309482912    0.76813850873572
H          -3.70725150001215   -0.59892138441773   -0.03946965574601
H          -0.22323607772787   -2.09320590721511   -0.92310922021377
O          -0.12743001298540    0.76161176682006   -2.28435138454265
H          -0.56544389478905   -0.00041994273584   -2.67583764079456
O           0.68325731155043   -2.63415451989034    1.80870042136201
H          -0.00617040800531   -1.94322204364345    1.78542856104338
O           0.69255325561945   -2.44590812617101   -0.84937686821431
H           0.78000656503674   -2.72401989665112    0.09047126821081
H           1.49092051777764   -1.26570081334435   -1.02706628440191
O           1.89525763137256   -0.27942291521871   -1.10579326430477
H           1.82642864882430    0.13363933810240   -0.11658657004590
H           1.19677789777905    0.22035794273293   -1.65487692115389
O           1.49088257315672    0.66094061204688    1.16101984749074
H           1.42515433414040   -2.25191553552241    2.28213351709828
H           1.26159993108617    1.61713018256378    0.98838267324306
H           0.62415466862090    0.24156412459701    1.35593217855891
N           0.46542618050246    3.00429735024343    0.47345089191282
H           0.78540050256473    3.43636294538465   -0.38433975671452
H          -0.71725829463921    1.02301090456968   -1.53827768658380
H           0.29450742342937    3.73960448551297    1.14716672521282
H          -0.42545261397853    2.55055531704464    0.27347762997663
