    26
        -50.46185053  Gyration_radius:  2.40103983406 Dipole_moment: 4.319
 S          -0.25553511569214   -1.53237439700288   -0.94982792973220
O           0.90147541784459   -0.74191721444666   -1.36196097421735
O          -0.11274666239852   -1.97238142730940    0.43182444040887
O          -1.50945404367255   -0.86492467752728   -1.19750854308053
O          -0.23807116830494   -2.83187536194364   -1.84389835686115
H           0.61740237838927   -3.19275932987973   -1.63932980090369
O           0.88463191722862    1.64960715530896   -2.58281637001177
H           0.94367029607455    0.71344058730888   -2.31061163654744
H           1.56325121486737    2.11017507961410   -2.08404570308692
O          -1.90278096334451   -0.38174797070291    1.49228636784690
H          -1.23490663095310   -1.03926803645209    1.18666212055305
H          -2.63075584731018   -0.48022779075327    0.87115689962266
O           1.49872741889716    0.98452647768757    0.55191452061262
H           1.37234221301438    0.33204649038857   -0.17270646468611
H           1.63356373410433    0.42845800094485    1.36698651517433
O          -0.82280853732890    1.85059446571580    0.84481437525247
H          -1.28932977017009    1.02290694783940    1.21935827002728
H           0.20173973366386    1.57335620513406    0.75472787924821
O          -1.55270061805742    1.75128974852249   -1.53113484814741
H          -1.69083148863917    0.77847097211674   -1.55202910993760
H          -1.17924377717450    1.92697391635432   -0.16600884740511
H          -0.73342694143006    1.89375257092344   -2.06008906207488
N           1.45989397479957   -0.76827374503314    2.54843268709862
H           0.96911563389216   -1.42013966287372    1.93833709784398
H           0.83846735329612   -0.54696741660265    3.31638785074429
H           2.26831029840509   -1.24274159734018    2.92907861230144
