    26
        -50.45760678  Gyration_radius:  2.4951600124 Dipole_moment: 2.750
 S           0.79850045324002    0.83609151237928    0.82793371894789
O           1.81458683528420    0.10003648527475    0.10067565612898
O          -0.12356985528708    1.50571811718830   -0.10600276196029
O           0.06036572439143   -0.01044204244273    1.75751563132992
O           1.47739882365280    1.94318306311353    1.67254931008527
H           1.96652909626996    2.45189697107655    0.97034842977249
O          -0.15424921231053   -2.62664682782144    1.37238579678963
H           0.03322296455265   -1.68459825898095    1.57838391174509
H           0.46470088209884   -3.14159138299321    1.89159786983279
O           0.57540958701255   -1.88805192993244   -1.15865768885524
H           0.29830410590299   -2.39078216981559   -0.37216292736774
H           1.11280778783283   -1.15057912396684   -0.80054220203091
O          -1.59701561041783   -1.10201961989096   -2.31214795055707
H          -1.34211512701641   -0.70931156081534   -3.14836984965256
H          -0.75114686752548   -1.45916916617000   -1.90070140250534
O          -2.45350392802410   -0.80616956498351    1.58122312367942
H          -1.60848491338181   -0.40867111527931    1.88294126678298
H          -2.24320243919927   -1.73588926083683    1.43307855246519
O          -2.35407798208064    0.54919072208351   -0.56073836406288
H          -2.12750978015788   -0.12502543416963   -1.31746322000312
H          -2.54387265871305   -0.00591516687573    0.28775733494590
H          -1.42736840681743    1.03091600490387   -0.35570732714950
N           2.50747180852948    2.75680463474576   -0.57219368375349
H           3.32135706176137    3.23991898682607   -0.93061635992931
H           1.68953605397435    3.07127075092989   -1.07856375219106
H           2.60592560641269    1.75983539644674   -0.74252311249071
