    26
        -50.45852422  Gyration_radius:  2.50872302317 Dipole_moment: 1.944
 S           0.55457163417141    1.24361295971307    0.39958981742476
O           1.19931738012042    1.14558683126213   -0.90281982861279
O          -0.90708326687574    1.14005491140149    0.25707437238639
O           1.05582861600542    0.24023015770735    1.32612282267727
O           0.85938247252780    2.63031029751826    1.01266296000699
H           0.50938764124925    3.23915294399513    0.30406779938906
O           2.04982654810103   -2.01452560857430    0.36628550444055
H           3.00119285626571   -1.97232258775849    0.25915239082272
H           1.77891038227841   -1.14575384920326    0.74115136847930
O           0.69039726013485   -1.25015853269722   -1.83156566758958
H           0.98278533913577   -0.32329544804551   -1.65929567884256
H           1.15039201685053   -1.77504629048742   -1.14370480102099
O          -0.17507261785735   -1.91763041564408    2.32847597279934
H           0.52961301343586   -2.50911777700440    2.04448350674956
H           0.15702939439726   -1.02147747603285    2.12231859194055
O          -2.24752527151417   -2.37257196642267    0.80593500705717
H          -1.47240950257007   -2.25259865133578    1.42276059947946
H          -3.02167818370236   -2.08114434482706    1.29060066072537
O          -1.65371332135526   -0.79545531320551   -1.09408851837125
H          -0.72053565622287   -1.09614542201094   -1.49132494160669
H          -1.93574737715758   -1.48868084968131   -0.38600530238565
H          -1.40440762613735    0.07223279550385   -0.54339442735285
N          -0.14699600481145    3.62582454688581   -1.16732194064525
H          -1.12098157862274    3.35706579507975   -1.11031663500749
H           0.35654724615249    2.86413128733434   -1.61264705589826
H          -0.06903137398665    4.45772200653143   -1.73819660704813
