    26
        -50.46009897  Gyration_radius:  2.46680137396 Dipole_moment: 0.815
 S           0.75004478907141    1.09125131218513   -0.10446024760338
O           1.24077159071221    0.78330510380819    1.22945937394958
O           0.95822033802437   -0.02471756324578   -1.02098535461698
O          -0.66071399267116    1.47904809361327   -0.07879224075788
O           1.52422396095057    2.32196216388400   -0.65200871459714
H           2.45240532139702    1.97441000781123   -0.64308721921087
O           0.59481606705737   -1.54447188597990    2.10210641258322
H           0.89193921640972   -0.66428825047758    1.73514743735307
H           0.50418461510961   -1.41243469220869    3.04822454127844
O          -1.02334969874355   -1.62030863312634   -1.46725854928968
H          -1.67692014697480   -0.94280201031740   -1.75308473738333
H          -0.17831394235267   -1.10372187715925   -1.36487095583709
O          -2.41250573830802    0.62895784036669   -1.84612632901227
H          -2.33513062597241    1.09037795580077   -2.68195692617533
H          -1.75064978263658    1.04302576603437   -1.24340510318259
O          -2.61511999645788    0.33612927845165    1.22822934089615
H          -1.84742617573452    0.86285707219240    0.89933338065176
H          -3.31413050043071    0.49103768079101    0.58598183535787
O          -1.60689972269298   -1.97938089454193    0.90552684750265
H          -1.35959929229305   -1.91974404281937   -0.16870997390684
H          -0.71117952300503   -1.90528706926120    1.40088107887391
H          -2.09696305624737   -1.09904664682882    1.10385583047473
N           3.60118616994457    0.77597375404218   -0.38262408792579
H           4.58193663153276    0.62136358726175   -0.58107004710878
H           3.04885781423369    0.07039372014572   -0.85980824416362
H           3.44031567997477    0.64611020953758    0.60950266189739
