    26
        -50.45289444  Gyration_radius:  2.64833046648 Dipole_moment: 2.978
 S           0.06368324826308   -0.77737876317280   -0.23500413655392
O           0.62242163630469   -0.34759067636659    1.13542311981267
O          -1.24963541792163   -1.32230044726729   -0.06438186461572
O          -0.04354575939773    0.52337133177926   -1.02380465653213
O           1.03043496630380   -1.63935876528358   -0.87068837633718
O          -2.48372951958446    1.19110439051809    2.87632590917734
H          -2.63415219992807    1.26994260336046    1.89494901009082
H          -1.93437686089961    1.93345052406157    3.13232597711160
O           3.22348262065964   -0.37449679454496    0.08553565333554
H           2.60411544478843   -1.05467487343338   -0.22998034557246
H           2.91580349851514   -0.13729307995395    0.96405135209267
O           1.91885386634766   -1.00486125155664   -3.35645766324599
H           1.26106610025643   -1.24141531110984   -4.01159947188726
H           1.64218912540334   -1.41958439137457   -2.51951382683052
O           2.21440248168648    1.16983967640726   -1.82076655579055
H           0.91610287382757    0.86433960441420   -1.36169347501552
H           2.78685193859987    0.76116570318233   -1.12776047250977
H           2.27457406219588    0.55965477568922   -2.58541240987855
O          -1.18938967449977   -1.08667603961280    2.67567618182023
H          -1.67578449681222   -1.53380550531109    1.97125845691616
H          -0.07153824779018   -0.63605806804857    1.85961080211709
H          -1.71169775143035   -0.26595943086348    2.88997472782900
N          -2.63945615527981    1.19720098717818    0.20683629472906
H          -2.29289671735113    0.25808897270185    0.01898036257940
H          -2.00316696589364    1.82946796121957   -0.26452525150482
H          -3.54461211634855    1.28382685739053   -0.23935935130423
