    26
        -50.45363107  Gyration_radius:  2.49779938223 Dipole_moment: 2.036
 S           1.55464855847627    0.90585909728030    0.34291059119224
O           1.30928900548664   -0.42374888651071    0.88344512894870
O           1.85219490102961    0.82724025478664   -1.08707094645377
O           0.50912681270941    1.84674139436641    0.66325793626283
O           2.87463989006953    1.43638416090912    1.02420599319528
H           3.52138140487948    0.84710692533961    0.65206640581687
O          -1.34347135310690   -0.84714001773309    1.15062033676243
H          -1.63181728986605   -0.27266978818041    1.88886155281967
H          -0.37379278241336   -0.73630647102550    1.15256908651418
O           0.49683761795684   -2.65761589590177   -0.35854053962225
H          -0.33033808082781   -2.73132619572587    0.12868513055222
H           0.96305925893079   -1.90646225791427    0.05803406522733
O          -0.06041218843300   -2.01796422734301   -2.83045036871599
H           0.65718877482445   -2.33964696934688   -3.37840772467277
H           0.13289318544101   -2.32584394951111   -1.90217740011772
O          -1.63609817251704    1.02498053925057   -0.66262959282680
H          -1.72596364630116    0.21848458182861   -0.08681933340932
H          -0.98245688980887    1.56966867737877   -0.17719606156435
O          -0.13670861063258    0.50824812822235   -2.56646538398800
H          -0.15460058057037   -0.50478600501167   -2.74422550744712
H          -0.89732397930873    0.72326865106375   -1.83468197202222
H           0.73552827708918    0.69080683820392   -2.04112650492076
N          -1.42172144683137    1.29057269433182    2.84861856427491
H          -1.04996130999143    1.25558171496999    3.78973972855551
H          -2.17589492340396    1.96645862591270    2.84328100607585
H          -0.68622641288818    1.65210838035104    2.24349583956503
