    26
        -50.45289438  Gyration_radius:  2.64787887671 Dipole_moment: 2.994
 S           0.54069201704818   -0.12827063085024   -0.59758047004234
O          -0.54783385130182    0.94547844788953   -0.78874892702920
O           0.11949632756348   -1.34939947704199   -1.21600015664500
O           1.79829232925563    0.41273734661458   -1.05304692372226
O           0.60276913563129   -0.33921091556940    0.91165432306953
O           3.91938089932974    0.40709008200554    0.64143544100874
H           4.29392991161808   -0.47317326475725    0.69377168894720
H           3.29875792853616    0.40301436180183   -0.10947900994186
O           1.33366355434399    2.95409767382428   -0.24731935921818
H           1.63679138657455    2.17550158993463   -0.74504064151433
H           0.39352870190933    3.02465393627389   -0.43146024816745
O          -3.81909620673878   -1.07628673078098   -0.27100400582433
H          -4.11840543459201   -0.37671081453591    0.31167913841247
H          -3.10192657900508   -1.56749678124731    0.21519217369660
O           1.86240026853467    1.53740858723289    1.93265298065396
H           1.68599283339171    2.26246464056826    1.28598950682324
H           1.10946068130154    0.46788314588944    1.40499867872924
H           2.76914897526328    1.23052533536038    1.72158572215070
O          -2.21450621723895   -0.26577561119083   -2.18726950231340
H          -2.93144862326118   -0.55761297268208   -1.56014647413826
H          -1.29489611118482    0.52957599611639   -1.38744284176246
H          -1.63667446301607   -1.03078788640449   -2.30369595705344
N          -1.68297859373257   -2.20559238689779    0.87456677791963
H          -1.00555532515317   -2.07585319986114    0.12512738003866
H          -1.70135945299279   -3.19230239261452    1.10260111417838
H          -1.30962410208512   -1.71195807907318    1.67697958177236
