    26
        -50.46062690  Gyration_radius:  2.58231150471 Dipole_moment: 4.393
 S           0.06477692019177   -0.62783736785092   -0.55919820822112
O           0.65549572877256   -0.63857851633002   -1.87588700325040
O          -1.19986060118254    0.09597525954382   -0.52566369508131
O          -0.22556135083905   -2.06837578883313   -0.08528271958578
O           0.99435187563081   -0.02257787462580    0.43424062690083
O           0.04996026875527   -2.40397333564951    3.39392202549474
H          -0.38142099313315   -1.56734064323191    3.12173795883373
H          -0.60703202392945   -3.09352345173866    3.28442728240572
O          -0.96117936796315   -0.16396645669623    2.23630320263188
H          -0.13978846844683   -0.03511968022867    1.72876030755554
H          -1.63569351637675   -0.23670037759100    1.55250136836158
O          -1.94522113040204    1.51241084836570   -2.63098492168753
H          -1.75764267480495    0.95613010223554   -1.84148078745294
H          -2.42878576504189    0.94841108671726   -3.23624318564101
O           1.81122911181404   -2.48766357013147    1.37963702848725
H           2.04759014922866   -1.55759082258509    1.27024418562335
H           1.31879230556776   -2.54433055691343    2.23227819133600
H           0.59583860745581   -2.38851623905040    0.41313914458702
O           0.69225739536315    1.80337600496216   -2.81528895529368
H           0.65117026397005    2.27515830925233   -1.43652644206758
H           0.84317758487304    0.84381901374047   -2.63304373150106
H          -0.26547484199181    1.84522642904852   -3.03099745054311
N           0.49963123696818    2.40435429047165   -0.33848346645649
H           1.01690310158982    3.18665012465322    0.05029030268872
H           0.80689012527309    1.46902007025864    0.07899300103525
H          -0.50040397134290    2.49556315220873   -0.16739405916690
