    26
        -50.46220840  Gyration_radius:  2.42260609744 Dipole_moment: 2.965
 S           0.86991744364898    0.80949061396500    0.40394347450657
O           1.34225836451621    0.28218153155020   -0.86885619019908
O          -0.54866630231540    1.18218724673611    0.30388127712588
O           1.07655191972118   -0.13622654867284    1.49252256599445
O           1.66874586612069    2.08613725362319    0.74886510305163
H           1.59293175206106    2.62930935168477   -0.08792584374599
O           0.94110613635964   -2.40491573824637    0.13521968505008
H           1.46222649881801   -2.24444165853856   -0.65548577499097
H           1.08692332054106   -1.60856197517225    0.68743891449237
O          -1.59431700814165   -2.13843391871164   -0.57286579408107
H          -0.68122312299545   -2.41714646304432   -0.30959002171089
H          -1.45659256900869   -1.51196548363809   -1.32861694581642
O          -0.94000475628329   -0.12094418375589   -2.14073678686359
H          -0.02940848347574   -0.02744649915234   -1.78542628396479
H          -1.42875319302244    0.59493735222170   -1.72321283472487
O          -0.61986921397588   -1.35723109415767    3.08279316044578
H           0.11341530150186   -0.83495869028417    2.68831440246712
H          -0.36373959523018   -2.27885938170100    2.99481984929193
O          -2.15349053925480   -0.51993419961228    1.21226758875969
H          -2.00613999804599   -1.29001073896992    0.43582498569662
H          -1.68804623766419   -0.87041373997999    2.04838316015191
H          -1.55786052668830    0.26111705669491    0.88509933093451
N           1.28830247082325    3.00815118913203   -1.65838113096746
H           0.33749732515408    3.30598555159002   -1.83197622327797
H           1.37716075044668    2.03351982101039   -1.93090399951401
H           1.91107440642815    3.56847334540138   -2.22539568810890
