    26
        -50.45462862  Gyration_radius:  2.5233596794 Dipole_moment: 3.170
 S           1.64686595255718    1.83536926521085    0.69490888714134
O           1.64239214902908    1.72741963143017   -0.76418188941467
O           0.49696977288147    2.58050545008375    1.16985473314188
O           1.81488226688086    0.54738265956942    1.33229245168163
O           2.92068566819677    2.69263223504468    1.06698670749998
H           2.67527302361384    3.53876535927701    0.70942068831548
O          -1.65206892508227    1.50881924168038    0.22813432518320
H          -2.34893682081842    2.16430358318769    0.28578400660937
H          -0.82729789230471    1.96015043722686    0.55115951143110
O           1.45295164286737   -1.82217952344922    0.17467086945367
H           0.59213066250673   -1.80852554291023    0.62592584333215
H           1.94346939909589   -1.11703669791075    0.63883381178405
O          -1.43416843708016   -0.27434189299336   -1.80067450367756
H          -1.57181857196495    0.44378194542619   -1.15121336712163
H          -1.68337870307638   -1.11660951557791   -1.32892280260352
O          -0.61690546638084   -0.66488792297389    1.62134964744304
H           0.21702529074766   -0.19910100361046    1.80450652878825
H          -1.19712312881016    0.02266787984122    1.26262304231820
O           1.04572790759078   -0.41334945410338   -1.90030419974511
H          -0.02781230505289   -0.34992199841704   -1.95577709699362
H           1.34580495327910    0.49650923303582   -1.50514799115023
H           1.24915041209289   -1.09289951222191   -1.15265466090173
N          -1.89741954383473   -2.47079720348808   -0.33973759189073
H          -1.65304892370689   -2.11857014988404    0.58170006529473
H          -1.28699398027707   -3.25087376908142   -0.54899863712642
H          -2.84635640295234   -2.81921273438701   -0.30053836879469
