    26
        -50.45462869  Gyration_radius:  2.52333406853 Dipole_moment: 3.169
 S          -0.79562659679457   -0.28591762770097    2.41852078500418
O           0.19111400184549   -1.34191974458821    2.53753024129735
O          -0.15666078663709    1.02296885656902    2.27951614907633
O          -1.78191951586501   -0.51868973932518    1.38593669659695
O          -1.57854684610244   -0.24755263195358    3.79029439439925
H          -0.85489493871321   -0.20456099927044    4.40554800179996
O           1.82007628700449   -1.20454345256061    0.54210224020527
H           2.61399986175695   -1.68286046907286    0.78614165050392
H           1.23023940669267   -1.23143457811306    1.34188970773146
O           1.82733037600098    1.03872976823653   -0.97792817662174
H           1.94133122534220    0.26221216147456   -0.39442831555038
H           1.43284058847492    0.68603172378494   -1.82291030906458
O          -1.99145680376078    0.82696982785144   -0.90104835821252
H          -1.53397479075506    0.06125768925607   -1.28738467864708
H          -2.27989476824838    0.48279722255633   -0.03409072402291
O          -0.57205089321390   -1.55997842100243   -0.83172304288248
H           0.34100723234718   -1.62674906885521   -0.51559668940694
H          -1.09740193377574   -1.46216485028376   -0.01908259434676
O          -0.09578173621219    2.20420168705493    0.08157385349425
H          -0.89710459850477    1.76626785876242   -0.39629485978946
H          -0.11652652192334    1.79933110140536    1.03528042258389
H           0.78424367020312    1.78616550086672   -0.37700863788100
N           0.54650810800661   -0.00583884264676   -3.08551849523717
H           0.08077976365457   -0.78758318999329   -2.63298368497907
H           1.10697768924843   -0.37154558876281   -3.84416730877496
H          -0.16460748007650    0.59440580631627   -3.48416828725907
