    26
        -50.46954185  Gyration_radius:  2.39867408658 Dipole_moment: 4.983
 S          -0.78898464282966    1.35702229834837   -0.26209681617403
O          -1.14751265631414    0.02697379145094   -0.75976747164204
O          -1.08681486955209    2.39788260010152   -1.20685025893459
O          -1.59134879545568    1.59071056178143    1.05569949097810
O           0.63350228209077    1.37867431844595    0.13911158767986
O           0.36759693464463   -1.83131886280375    2.10722781351931
H           0.61191100865978   -0.90367233085518    2.35689285755900
H           0.63720213442228   -2.39042643368924    2.83703090816007
O           0.57072365363756   -1.99278175647447   -0.68276692643870
H           0.67158753153872   -2.10692291314990    0.27514593758226
H          -0.18249886814522   -1.37059814987674   -0.76896550122199
O           0.78604433293653    0.71177961758367    2.66711461185122
H           0.82415101550502    1.04213553202878    1.74083541351736
H           0.03434917549468    1.16021181241078    3.06178085262614
O          -0.17936664174772    1.00796576942244   -3.25645939739488
H          -0.86374730936509    0.33395367510290   -3.28712672163033
H          -0.51562035673030    1.66465363428113   -2.60314205707510
H           1.13495692781467    0.37464537686902   -2.52233090722717
O          -2.16113837418647   -0.90138028919021    1.50456892161684
H          -1.89312210973737    0.68999488397878    1.35942746237746
H          -2.08792388875742   -0.91272234737183    0.53691012271387
H          -1.36003230607384   -1.35768213196066    1.82210531359445
N           1.79014680695439    0.07167255533916   -1.74930231690796
H           1.52450803844637   -0.90195409732396   -1.43007068118972
H           1.50420715774758    0.69525745352920   -0.93352504532337
H           2.76722378900152    0.16592542202505   -2.00144720262614
