    26
        -50.45289438  Gyration_radius:  2.64773396192 Dipole_moment: 2.992
 S           0.58823734845346    0.18605520038386    0.53557098633760
O           1.03588033680482   -0.23514150151604    1.84079471229797
O          -0.79150028195499    0.85467293387085    0.68759229620033
O           1.46685943866815    1.06280830800538   -0.17886155118088
O           0.31957396930643   -1.04499850667674   -0.32371064138101
O           1.73183971902922   -2.83263621330855    2.21363826415716
H           2.60063134981760   -2.99555204258342    1.84401158383247
H           1.61110949981039   -1.86609256237166    2.22919898181214
O          -1.41073057823082   -0.89481451889947    2.79048053631847
H          -0.49217817704438   -0.58340987510894    2.71924807393235
H          -1.94498108780200   -0.20828582105184    2.38313823563744
O          -1.27986786662957    2.54191473048720   -2.77575874202733
H          -2.16065734278237    2.16492404200649   -2.79655254641731
H          -0.64238497025388    1.78965939008093   -2.91630308516888
O          -0.39605448171540    3.07824653554051   -0.36050045526876
H          -0.77537644244665    3.01562600537673   -1.27954246472942
H          -0.71947090094553    1.81499271709877    0.28467266807144
H           0.55245535569480    2.92249197590295   -0.45406791309736
O          -0.70096854687142   -2.80622424937602    1.09334016438181
H          -0.15579581524752   -1.82573020668267    0.23826277568001
H           0.11587936707728   -3.12795441771636    1.52921680510082
H          -1.15459901436620   -2.26140999992386    1.78052468758757
N           0.45528218355794    0.50857443164115   -2.82842762030983
H           0.96972972469968    0.70834903101459   -1.97236285484912
H           1.12889989342067    0.44460420893834   -3.58208077063055
H           0.04818730994751   -0.41066960510814   -2.70152210630043
