    26
        -50.45490057  Gyration_radius:  2.57815130395 Dipole_moment: 1.528
 S           1.08455646372034   -0.24846586082393   -0.02958599487592
O           1.43344704430095    0.48897583461759    1.16241210601678
O          -0.37854101257030   -0.67545090387097    0.04960401228834
O           1.32858301897758    0.48005011115671   -1.24615925786954
O           1.83217434858230   -1.57649822871508   -0.08078177188150
H           1.35982772409269   -2.21413721041042    0.57684470237789
O          -2.30459618392297    1.21968919754850   -2.66250016233240
H          -3.06332369205582    0.66771946903482   -2.85898051138664
H          -1.51508294108198    0.72179317727589   -2.97775745365676
O          -0.12888225297673   -0.16446280770477   -3.35816409192874
H           0.43768099008634    0.00431335886740   -2.57586522039208
H           0.38606764025460    0.11005589033832   -4.11931073338439
O           0.45477263034505   -2.93124124589712    1.53993363305605
H          -0.40020949580099   -2.74854139306978    1.13841578302468
H           0.51126569162158   -2.33449585791516    2.34610968717698
O           0.44196932081149    2.76486983671879    0.13120965536825
H           0.89367415247292    2.12248619759175    0.70561993706298
H           0.85510448139665    2.64925805184019   -0.73020724725314
O          -1.77382351859820    1.33980161128478   -0.08779507146104
H          -1.08326612987728    2.03931251964460    0.03190454869939
H          -2.04591374656045    1.37768794251692   -1.04458631237087
H          -1.05271805746204    0.20199248452831    0.01145075699724
N           0.63313425569388   -1.06655220047706    3.40113861578428
H           0.96917010042163   -0.37890352441176    2.72525402013601
H           1.33311406585293   -1.15324514602003    4.12692749768376
H          -0.20818489771682   -0.69601129364216    3.82486886312979
