    26
        -50.45490056  Gyration_radius:  2.57826453442 Dipole_moment: 1.530
 S          -0.47646492956338    0.86330570607415   -0.51599494872198
O           0.76506631597151    0.13109895245186   -0.01427538310844
O          -1.10734396299059    0.08110774565405   -1.55351326471508
O          -1.35336975775204    1.17263769100550    0.58220364613770
O           0.09042507521318    2.15894912861859   -1.08617374487023
H           0.96348190622208    1.91613768463223   -1.57708742553161
O          -0.23672314150337    1.62312004090535    2.93821028227720
H          -0.61203544957665    1.51520738136102    2.03879692575589
H          -0.86803722134074    2.15769755253319    3.42355127033311
O          -2.40500506681681   -1.41427113916425    0.26528870197066
H          -2.10782283836302   -1.01815954097858   -0.57212413607727
H          -2.67992215930051   -0.66396663219002    0.80167600996285
O           0.11356451810277   -0.93917804987101    3.60493366476680
H           0.98217860118857   -1.00971163986847    4.00418737550566
H          -0.02490848536027    0.01828840233074    3.41833524420896
O           2.20454400540274    1.29374055638783   -2.15455685142730
H           2.53505715941244    0.82467002029558   -1.38239025096192
H           1.81182799653853    0.59019778459920   -2.75459324722407
O           0.03603807959170   -1.89996141607009    1.15619272697245
H           0.04701160318601   -1.64001740248084    2.11702902315316
H          -0.91659118771269   -1.92478461727260    0.88696678964332
H           0.49141327285042   -0.80674276903466    0.50678764543256
N           0.89001578256815   -0.58808464088434   -3.45955124758162
H           1.17497590036569   -1.55521429428364   -3.36958141413447
H           0.62324169143528   -0.43211484091842   -4.42326327392945
H           0.05938227223500   -0.45395166379764   -2.88105412784254
