    26
        -50.46185100  Gyration_radius:  2.40101091282 Dipole_moment: 4.301
 S           0.14704520798238    0.72440543009569    1.66412889346522
O          -0.28086933085983    1.82693550121534    0.81345061362829
O          -0.78616216308127   -0.39512591798223    1.56705499071343
O           1.51637595377360    0.33749780990686    1.43037873753065
O           0.05862211290187    1.23748756196565    3.15326546914255
H          -0.87006851674453    1.42323921783778    3.23602346879713
O          -0.18821711757315   -2.97635675677990    1.12600204055709
H          -0.85019071827068   -3.20298540242638    0.46871739759790
H          -0.44133571612897   -2.09647937492753    1.46601179610611
O           0.97372155278276   -0.79081408309079   -1.80025215007181
H           1.23435349376536    0.18131962686626   -1.62609899000594
H          -0.05472047611517   -0.85363390164660   -1.53203559710096
O           1.55973542835592    1.58311509857618   -1.03336462845390
H           0.84832889787457    1.77681409133764   -0.37893187767612
H           2.34903446139310    1.46881169704208   -0.49537248695216
O          -1.38294087063739   -0.79695189279324   -0.97945355533665
H          -1.25347726250163   -0.66703489537320   -0.01352041639095
H          -1.73461966425726    0.07646651525614   -1.30355211796937
O           2.03928911467328   -1.90812699023941    0.14972269910659
H           2.01775020390566   -1.12150857231231    0.73848240635861
H           1.34666480203471   -2.50681462864950    0.51475165954118
H           1.49198794546905   -1.34927716214323   -1.04214708663111
N          -1.95050293546595    1.73464285175251   -1.55392995206567
H          -2.87589161766505    2.14363381732848   -1.55355089643884
H          -1.43165587501620    2.13923570222038   -2.32334575473880
H          -1.48225690069621    2.01150464707348   -0.69243468268679
