    26
        -50.46797329  Gyration_radius:  2.47259370275 Dipole_moment: 6.427
 S          -0.05336204483212    0.65007821343499    0.92635510741290
O           1.26595331007890    0.36950589347242    0.35938108667828
O          -0.95362795862855    1.22983302604163   -0.05277662754781
O          -0.60751504863867   -0.58195667959418    1.50341113796808
O           0.12065339829608    1.63906531800055    2.09836123674539
H           0.09306167036591    2.53540497900282    1.64471288282909
O           0.01333246216628    3.66185081319616    0.54267702407505
H           0.89011605555269    3.56574617261156    0.11529548109932
H          -0.58498542059166    3.10837880683359    0.01777164007809
O          -2.48442811199501   -1.84036213574408    0.07561685626434
H          -3.38341429340410   -1.52055182709565    0.16402232360462
H          -1.93474206317004   -1.26876556612767    0.65256474312815
O           1.27678482151646   -1.50003325856247   -1.50851439376164
H           1.50156273790296   -0.74995141565949   -0.91573948828660
H           0.72208718399789   -2.37776058595177   -0.48999575483212
O           2.32027348399635    2.67667240283034   -0.40346264574706
H           1.98221631224693    1.78113137012626   -0.18775668120470
H           3.15895309152899    2.76377114622178    0.05236677519924
O          -1.12917995428296   -0.58261419215164   -2.01271137824957
H           0.44843196697560   -1.19054734726041   -1.95726055775904
H          -1.74184627197798   -1.16695126983596   -1.54041763947513
H          -1.07501659664490    0.21215126370058   -1.44683334073725
N           0.18126347052076   -2.80244180908089    0.38770638999235
H          -0.72628074023349   -3.16660612628671    0.09713202009224
H          -0.01992557037127   -1.94653513321506    0.98696980448497
H           0.71963412959551   -3.49851207892008    0.89112402794310
