    26
        -50.46797323  Gyration_radius:  2.47271214407 Dipole_moment: 6.431
 S           0.40635106782478    0.66943724625589    0.81928085967887
O           1.51631220843879    0.35626528347982   -0.06105523600192
O          -0.76948742645805    1.12606964171903    0.07787741642728
O           0.03907247489781   -0.48293594987608    1.65299856165510
O           0.83444172783842    1.78961185652066    1.79093344199042
H           1.43710558213361    2.36178569101431    1.22614327098910
O          -1.86085381651220   -0.70949618810471   -1.47897213649354
H          -1.59345450980291    0.13102685819811   -1.04691325835236
H          -2.02759618364003   -1.49312394442906   -0.26466911854911
O          -0.11061380766786    3.36148404974869   -1.18105832951598
H          -0.73331369519865    4.03373497866214   -0.89994266457876
H          -0.41765219900765    2.51896804366515   -0.78274701227107
O           0.77516672076859   -2.89573230654886    0.76990788249954
H           0.67957524842938   -1.99875067049278    1.15477248846073
H           1.66985909974285   -3.17571839381927    0.96808513364542
O           2.25586225998536    2.93618886282336    0.00495087505018
H           1.53344565483624    3.29685732309366   -0.55065769462639
H           2.40124083385845    2.03580690941991   -0.32365386503611
O           0.60980810843370   -1.57109627464128   -1.67941919424351
H           1.03913653199052   -0.80489950379882   -1.25106429127222
H           0.69754088490747   -2.28483968363173   -1.02929092808651
H          -1.00151979830446   -1.07134898945547   -1.81601551570687
N          -1.91445611275878   -1.95170773415981    0.74514194126178
H          -1.42330271175596   -2.84288103419538    0.67222960517466
H          -2.79322178525764   -2.04872804760350    1.24129479294035
H          -1.24944635772778   -1.28597800384022    1.24184299495573
