    26
        -50.45259867  Gyration_radius:  2.4863745972 Dipole_moment: 1.285
 S          -1.54054658156819   -0.90333917595117   -0.41907066005375
O          -1.32272489064954    0.34911242128642   -1.13487087066024
O          -0.57962195029940   -1.91500009092713   -0.86516613639684
O          -1.60311436479774   -0.76151604583154    1.00817502377957
O          -2.95828278736107   -1.42534874143477   -0.88284194882265
H          -2.87218473596936   -1.45307102893300   -1.82979656496233
O           0.14787950952087    2.05760881011064    0.39436893390673
H          -0.50936479038735    1.58148287527210   -0.14230912528471
H          -0.33942185698054    2.26098708431809    1.21925170167600
O           0.95638232102927    1.09879520846787   -2.25074463710108
H           0.01914446453964    0.92085051081920   -2.01831737441803
H           1.27434918234970    1.67357943608185   -1.54435836072956
O           2.94919192559098   -1.52201496376281    0.06014922220519
H           2.99525044211586   -2.40972208855896    0.42007401936677
H           2.28628431089917   -1.02788001303261    0.62221478062103
O           1.03534374746631   -0.29447385019053    1.29452117306650
H           0.91298666726614    0.64658755602893    1.03761419725964
H           0.13563790658629   -0.65809493887258    1.30951017089501
O           1.54383653196532   -1.34750665432502   -2.01636150646321
H           1.43053912555132   -0.33290806699880   -2.19192471751448
H           2.22336629422517   -1.44810362747922   -1.23118969530886
H           0.62923707561946   -1.63506791276721   -1.58896158089256
N          -1.53143144854003    1.78708556550775    2.52780799480521
H          -1.71731077434296    0.86910489474064    2.12668620242846
H          -2.42282755338897    2.25293723376932    2.64484076106795
H          -1.14259779043958    1.63591560266369    3.45069899752871
