    26
        -50.45259872  Gyration_radius:  2.48637318221 Dipole_moment: 1.284
 S           1.31294522570563    1.26388881089064    0.20833695661289
O           0.52292160983135    1.58773057178964    1.39861271107964
O           1.75401066010020   -0.12589070279464    0.25878610668802
O           0.67337373642179    1.63346130415459   -1.02267695585954
O           2.62533258404882    2.13796178971776    0.31452958376267
H           3.02670972110428    1.81736655253370    1.11517547037393
O           0.10701130732568   -1.68673458999560   -1.24864961003008
H           0.13995729492981   -1.39174299620561   -2.18201973531205
H           0.82930117054112   -1.18685017985748   -0.83025628237597
O          -1.58147669436030    0.24784459159422   -0.51604366060016
H          -1.15290133552235   -0.58774923829721   -0.80702363031966
H          -0.91207266029882    0.93096481870745   -0.68083488753691
O          -2.81710748735545    0.11035636809534    1.75284241520614
H          -2.44293627351845    0.14278562656255    0.82631687244401
H          -3.22277608719607    0.96554033542228    1.90697325100677
O           0.56619543049817   -2.05995167741239    1.61860139224755
H           1.19600063177279   -1.44910529062561    1.17773831508262
H           0.06280431004872   -2.45019174631115    0.89420632768761
O          -0.55424322416003   -0.13900664062301    2.81803073179770
H          -0.15900618765384   -1.01465860437579    2.43049923587157
H          -0.06474903592297    0.61930231860272    2.28208155126656
H          -1.54111800123865   -0.07573873364843    2.48567207216703
N           0.37640314213255   -0.07345211259118   -3.43253812329323
H           0.54391723093254    0.65425683385837   -2.73934710152879
H          -0.44814848520576    0.19672202779228   -3.95486503964838
H           1.15965139702301   -0.06710944697876   -4.07414795679494
