    26
        -50.45259867  Gyration_radius:  2.4863697592 Dipole_moment: 1.285
 S           1.08224347004732    1.25370777388423    0.78857994877643
O          -0.34666071082870    1.39329413682709    1.04790326834369
O           1.60711425672566    0.06852101589041    1.47099561501379
O           1.43671061870074    1.31953625263094   -0.60104794956557
O           1.77158055506248    2.49147993320198    1.48879193763809
H           1.46454179052498    2.42260740685668    2.38650557251351
O           0.64043768779211   -3.24850686217770    0.23605496753733
H           1.55326756930037   -3.53682850322742    0.17820904281036
H           0.54642911857401   -2.49092529407137   -0.40950970663420
O           0.42325022828790   -1.10523697682159   -1.19657567032311
H          -0.48442260464650   -0.73105488174967   -1.24830959420910
H           0.99137285625352   -0.33531662753135   -1.03424047486678
O          -1.77944389334160    0.39642959139576   -1.04351182042774
H          -1.35241088842651    0.91530135667115   -0.33989090236696
H          -1.56804592080693    0.90130636589385   -1.85571727095856
O          -1.98261170051257   -0.57831929823229    1.70941346880200
H          -2.35605049382499   -0.74769964769826    0.83629706881020
H          -1.50233050719782    0.27222922447606    1.60936646557143
O           0.16536775673626   -1.80072844449643    2.23498291082580
H           0.33811786404225   -2.50014457087180    1.48047031888264
H           0.80313970119072   -1.00551457985853    1.98447267888071
H          -0.78490557603121   -1.41760513283587    2.08227660828199
N          -0.40055666166982    1.89385344111534   -2.86038460324167
H          -0.06165192650360    1.45749125809703   -3.70919535944240
H           0.35042363086191    1.83803493946569   -2.17405914310110
H          -0.55490625031300    2.87408813317136   -3.06187738754882
