    26
        -50.45705159  Gyration_radius:  2.47195337065 Dipole_moment: 1.716
 S           0.15074551346742    0.88639963899844   -1.25447893096200
O           1.34131773131561    0.48005519067687   -0.53207683753847
O          -1.03633558926473    0.18102250412987   -0.67435776671154
O          -0.07828270412059    2.31417961718012   -1.24008903008542
O           0.25869039720855    0.41556828807461   -2.71267572812007
H           0.69653187701824   -0.50921387787234   -2.63229225175529
O           1.11363264447558   -1.45786747840330    1.22290327349861
H           1.29739827324468   -0.73085344316643    0.58327839546942
H           0.45307498424970   -2.01596388070041    0.78191760811671
O           0.00517638023259    0.04413256438164    2.99971823501296
H           0.44449772958936   -0.62595438736852    2.38741976702926
H           0.68745109340318    0.68259698389955    3.21837623192812
O          -0.62070021864265    3.38822952982060    1.02453091080908
H          -1.16719479725326    4.15192325636105    0.82805852642164
H          -0.29438444289781    3.05549988984436    0.14051200463287
O          -0.87188162083675   -2.42981363753164   -0.44348636936947
H          -0.99369309751468   -1.46260336317510   -0.59503607256435
H          -1.74077421165183   -2.78179888573473   -0.24528759812824
O          -1.69454184548669    1.14537820518398    1.50436832224332
H          -1.48096041697180    0.70912384897364    0.55527748680232
H          -1.04912830580644    0.67033689221651    2.18107551086899
H          -1.34525406002164    2.10896308239667    1.41043425407417
N           1.36838378727547   -1.85164558765455   -2.24177563650532
H           1.81591569249920   -2.42354255425414   -2.94520875494253
H           0.67876781638434   -2.40875983548114   -1.74674297123331
H           2.06154738004454   -1.53539257080665   -1.57436257899285
