    26
        -50.46009910  Gyration_radius:  2.4661567784 Dipole_moment: 0.821
 S           1.14640152073006    0.66700064833828   -0.07956738465644
O           0.92701191092479    0.70488745729985   -1.51664323582227
O           0.01790910459339    1.23779377999770    0.64812710140786
O           1.42149215844734   -0.69353783210999    0.38369722614762
O           2.41391469565160    1.50025583936240    0.25632405965622
H           2.14114182627509    2.39268919059692   -0.07787315056633
O           0.36574260218171   -1.70355137542563    2.57041036604826
H           0.85418802094251   -1.30755907427005    1.81066785886398
H           0.80188944287186   -1.38436285889523    3.36128533497728
O           0.16785215645318   -2.88514073808701   -0.29161074190830
H           0.74324519507469   -2.08837590761186   -0.19441125155475
H           0.24534648326111   -3.35010441310595    0.54666426399796
O          -1.41807750593758   -0.02700015911618   -2.26605211732848
H          -0.52798149626617    0.31177341808007   -1.96503777282001
H          -1.26425600504792   -0.43198626768590   -3.12225216199406
O          -1.74831654362225   -0.37445470728249    1.62430795281347
H          -1.16134658327427    0.35345647774277    1.28229136206369
H          -1.13638092871860   -0.93989466874852    2.14748899329308
O          -2.06993168757379   -1.68066170602981   -0.44688698853021
H          -1.22507201041903   -2.26375856133941   -0.42390457591235
H          -2.02810543860480   -1.09882986936011    0.49062472954027
H          -1.90746360271541   -1.00378582122431   -1.20086077120024
N           1.04831362725029    3.46348630082504   -0.77265489564738
H           0.94541987895020    2.99896416453063   -1.66737229788525
H           0.96328670048569    4.46322367250691   -0.90824525641348
H           0.28377647805891    3.13947301100022   -0.18851665656267
