    26
        -50.45770213  Gyration_radius:  2.42036525915 Dipole_moment: 2.958
 S           0.15300489325671    1.20581449682423    1.33735715096942
O          -1.25920720937191    0.94970894626033    1.60124622913352
O           0.91405380308684   -0.03736768846290    1.31321215730681
O           0.38552592725406    2.00622012353528    0.15893546002589
O           0.65056455095155    2.03273718853384    2.58529517950516
H          -0.01947099826371    1.80948950527403    3.22252240814020
O          -0.31269736311974   -2.23305219915024    2.09611161325588
H           0.37939464278938   -2.85248600670629    2.33379278292275
H           0.13606185007552   -1.38106748057445    1.90038617430689
O           0.77361925128629   -0.94187723161709   -1.20249479334716
H           0.88274794735683   -0.67541838077691   -0.26723754470667
H           1.50173136130264   -0.45990580426397   -1.64848846186282
O          -1.02805995146774    0.94465818551939   -1.82131618901690
H          -0.39445943532441    0.19496382601776   -1.88119773454087
H          -0.58450737624699    1.56252855631392   -1.20366081290243
O          -1.41576740749907   -2.36210167651539   -0.31404962819414
H          -0.62792400614833   -2.11486217297116   -0.82633278471848
H          -1.10170332124541   -2.46665593956823    0.61579551523441
O          -2.59880185850560   -0.15418973434765   -0.21991985572334
H          -2.09573903243335    0.34352767014718   -1.00095317128875
H          -2.21590380924759   -1.14301757334317   -0.25585814455180
H          -2.17548565083982    0.27802769608155    0.60764852464443
N           2.42439584983501    1.11227266679523   -1.82197338696659
H           2.36046881635668    1.65424388345984   -2.67521044960204
H           3.39098798538294    1.12976518096598   -1.52094263089451
H           1.87717054077849    1.59804394256748   -1.11266760712808
