    26
        -50.45892987  Gyration_radius:  2.45680360978 Dipole_moment: 2.267
 S           0.12156127093027    0.96589669283915    0.96883781169215
O           1.18948470994028    0.38661333435523    0.14793242622248
O          -0.79652954113606    1.73659821306559    0.12077788934680
O          -0.58028406341507   -0.04974413472127    1.73028155531610
O           0.77062483763500    1.94264647698238    1.97740211577115
H           1.22006897355679    2.59710757717987    1.37173932193507
O           1.29909553881537   -2.02771242072583    1.30996961340290
H           1.49204724983257   -1.17220889590631    0.88354469055579
H           0.58570460704072   -1.81204167396419    1.92083083086740
O           0.28964055261597   -3.19575417430934   -0.85625932426593
H           0.63410069815657   -2.86849644466694    0.01098335039884
H           0.92324025651185   -3.84316879827417   -1.16855581453698
O           0.21582873392521   -0.82715610781110   -1.98052834682198
H           0.70540796482551   -0.34564578857304   -1.27142726084539
H           0.19697416851144   -1.77489046995954   -1.67643184860691
O          -2.64679202054267   -1.18866529731954    0.60349120053168
H          -1.87025145586226   -0.84406319755280    1.10932797051629
H          -3.42535098883637   -0.94020094663132    1.10487162573750
O          -1.97037448509745    0.17723442715560   -1.44461368345417
H          -1.04946411812025   -0.32000840334503   -1.80869939265061
H          -2.37041106128572   -0.45420229898100   -0.75347908280397
H          -1.56749996674765    0.93174290968456   -0.85994608357860
N           1.65391159099450    3.22460362852396   -0.09566877746671
H           2.10089816769913    2.39828448380734   -0.47565254754510
H           2.16407410390102    4.04654321052008   -0.39336366952399
H           0.71429427615063    3.25668808863162   -0.47536457019279
