    26
        -50.45770219  Gyration_radius:  2.42036136006 Dipole_moment: 2.955
 S           0.63418719931343   -1.12817182595856    1.26127812642201
O          -0.53335637434359   -1.44108280311072    0.44630490589058
O           1.85643289137175   -1.17802403151297    0.46550051048565
O           0.46966963365693    0.10559510027500    1.99212284291514
O           0.79354090513826   -2.29239470934130    2.31386501307347
H           1.45289299455370   -2.82746895546291    1.88524345477613
O          -1.32955924273667    0.87790713926682   -0.62828289705607
H          -1.89441422525993    1.26171268792954    0.07524499624608
H          -1.11156017959587   -0.00570316237448   -0.26865068328821
O           0.27723806305141    0.16766760719630   -2.75290619523335
H           0.16712821510260   -0.80724165151675   -2.64543097621324
H          -0.44697830391883    0.56705149219052   -2.24276102966480
O          -0.11067052786414   -2.34483117307235   -1.99165006544455
H          -0.22583113558213   -2.09429938449302   -1.04851876810988
H          -0.91458803978418   -2.79960096998496   -2.24872671595715
O           0.87131198125558    2.10266056690684    0.28997359736556
H           0.00090351430879    1.92689608031116   -0.13266517250925
H           0.85491368021090    1.52621178027289    1.08207104079175
O           2.21183291028748    0.64462571576614   -1.23194934543628
H           1.77816941153393    1.39574970283936   -0.63313481581707
H           2.18904172693796   -0.16250322830922   -0.60034962312915
H           1.47811412017493    0.45079551258031   -1.97338134635082
N          -2.14805111786403    1.52461833203564    1.86980273916006
H          -2.93658306094057    1.06593201426314    2.30918267461139
H          -2.07378632465072    2.45271118767911    2.26853445579941
H          -1.30999870435175    1.01118697562949    2.13928326667802
