    26
        -50.45892982  Gyration_radius:  2.45681344503 Dipole_moment: 2.265
 S          -0.79242021882172    0.94812824434327    0.60081730120757
O           0.56262302003534    1.12456550104030    0.06913225120046
O          -1.72548081125017    0.66449213094096   -0.49693121078419
O          -0.83837658692912   -0.08247884845304    1.62040437563381
O          -1.22411051376625    2.27915993085833    1.25998339419623
H          -1.16592809911609    2.91757494551343    0.49433938361952
O          -1.28458112092323   -2.53665815088688    0.83593689774701
H          -2.13429859702490   -2.80548821620619    1.18949732115844
H          -1.08465393435471   -1.65491212657208    1.23607846641374
O           2.49903898446427   -2.17166671856859    0.25933991760280
H           2.30631378741803   -1.52900644972615    0.98576666984251
H           3.45345790813800   -2.23961561700081    0.20863342104583
O           1.20866063583512   -0.82471025706465   -1.58478038230111
H           1.72871315134356   -1.42715691633658   -0.98680458154247
H           1.06182629802175   -0.00725296946434   -1.05139020635062
O           1.89737456146461   -0.22166640010658    1.96569112867252
H           1.59372774539110    0.41348122948806    1.29087975629124
H           1.08710863798325   -0.44480432490549    2.43707430835536
O          -1.14701168586722   -1.54703586225157   -1.51353519437508
H          -1.49991824927582   -0.62733816186108   -1.19201264791795
H          -0.07075754349264   -1.32231208719987   -1.64961216041285
H          -1.20601584815123   -2.11772140123260   -0.67260623953285
N          -0.87457100013084    3.34955703828017   -1.07520937653818
H          -0.95972265006392    4.20957189080729   -1.60220086192594
H          -1.46993809875906    2.64126569166738   -1.48994293343287
H           0.07894022784516    3.01202788490491   -1.13854878787170
