    26
        -50.45285920  Gyration_radius:  2.62924221966 Dipole_moment: 3.015
 S           0.46841772091248   -0.45614427331966   -0.58116313475572
O          -0.95436902579078   -0.36180661315413   -1.16094903852353
O           1.30401239433751    0.53210321627929   -1.19421209291787
O           0.30900496938067   -0.09916365465794    0.89562049281091
O           0.90830296274500   -1.82453825829463   -0.69383571533795
O          -1.51897661176815   -2.95238342487302   -0.27489422874312
H          -0.61960361571778   -2.76843109584367   -0.59538716646057
H          -2.08744543831520   -2.33425306255677   -0.74120753479582
O          -1.30071370702289    3.52473439785522   -0.63470078332736
H          -2.02245822081520    3.29351892564791   -0.04815950898569
H          -0.45805611654497    3.35983630032694   -0.12919243880146
O           1.71628194072610   -3.13397758257869    1.54632754276094
H           2.63434626086624   -2.94438898882411    1.74341041229166
H           1.54358342751913   -2.78618320153404    0.65320020980282
O          -0.68210056626088   -2.04738251396909    2.07614138264296
H          -0.14838750059610   -0.89447031898973    1.44121175176644
H          -1.17390153248178   -2.49022101531641    1.34350138363433
H           0.13262885220016   -2.57784774111105    2.18411362572644
O          -0.80361081712701    1.73638105858636   -2.49381078164917
H          -1.07166573733979    2.48122944586690   -1.88913952411656
H           0.16185943936800    1.72997121093221   -2.49271628713936
H          -0.99235079768239    0.49982152630596   -1.74714052003487
N           0.94154911225432    2.76995899192973    0.60465957090122
H           1.22576390950543    2.02784141258773   -0.03263955054375
H           0.75791504875458    2.32228343426169    1.49458359138019
H           1.72997361893656    3.39351180442264    0.72637834243966
