    26
        -50.46448242  Gyration_radius:  2.45237591131 Dipole_moment: 5.465
 S           1.47186164018378   -0.67454838377165   -1.23084059503943
O           1.95949828326167    0.42728950761007   -0.43725952357953
O           1.19938179060493   -1.87501357565223   -0.46302015853904
O           0.32239859997769   -0.30515749456510   -2.06044672980995
O           2.62990564999020   -1.04931176502681   -2.24146338928768
H           2.30896910885154   -1.88069964621700   -2.57143252505521
O           0.52025159961166    2.36210346201664   -1.81874647971868
H           1.35953475306095    2.37981335592938   -1.34871456388369
H           0.41701078797925    1.42790448176539   -2.07636788925622
O          -2.02333884281724   -0.24588644683266   -0.95468619375696
H          -2.67670124113103   -0.26252545508997   -1.65587577280734
H          -1.13893362123729   -0.27462477780172   -1.40538362513207
O          -1.10867016933764   -2.17140618231880    0.70913534306207
H          -0.23601788938467   -2.20401831641702    0.24569556319733
H          -1.64507035597604   -1.56567352788903    0.16382748619520
O          -1.26319764399014    2.17443906485615    0.20089458449026
H          -0.70454887888993    2.45627784787954   -0.55560321374881
H          -1.71068073269306    1.37183457585109   -0.11061699233987
O           0.67539914951524    1.26675448604050    1.70017397092848
H           0.13154248828749    0.10761097055765    2.32273646581234
H           1.26620572316744    0.96786999703135    0.97223177639461
H          -0.08157818861773    1.71897993302524    1.23142971079831
N          -0.31680904352355   -0.81973783117591    2.77101091752632
H           0.40554907101637   -1.34091527780889    3.25655019117053
H          -0.69777398752932   -1.41809226941146    1.94565991106538
H          -1.06418805038225   -0.57326675258539    3.41111174131266
