    26
        -50.45286044  Gyration_radius:  2.6304459748 Dipole_moment: 3.019
 S           0.19167359438276    0.35383877705372   -0.77394911980629
O           0.21717588842504   -0.10949727900993   -2.13899330007186
O           1.09376733466304    1.41698892091670   -0.44732152515803
O          -1.24967650430263    0.77794603309569   -0.43909626097615
O           0.47622466333793   -0.82032121401630    0.16073187093726
O           1.14556273848743   -2.61026546399818   -2.65957540300689
H           2.10154005158725   -2.61507234444867   -2.72045942795842
H           0.86973130701597   -1.67627430076406   -2.65235812974035
O          -2.25753722835951   -1.21131544771894   -2.12545595943632
H          -1.44004471635971   -0.75945902438731   -2.39559542401612
H          -2.73385914730657   -0.57569121556752   -1.58531910289040
O          -0.44662089470109    2.03088266410446    3.20412293849721
H           0.41207958531554    1.57679593809935    2.98207614045855
H          -1.05540744512276    1.34555072829577    3.48354206631143
O          -0.69420367640490   -2.82855371720157   -0.71559156176577
H          -0.03662052376039   -1.70199377870765   -0.15445689236217
H          -1.44035028553700   -2.41773537284819   -1.21474466324089
H          -0.04577850761268   -3.08195902982391   -1.40292722972128
O          -0.86550565635006    2.92174236436514    0.76844609126834
H          -0.78606440674936    2.69632664318434    1.73550329350935
H           0.03914128495454    3.00514595099620    0.44156487233876
H          -1.19390756424034    1.68376669976644    0.07481680756656
N           1.73199176019752    0.77708791988499    2.30162889011426
H           1.63863505918244   -0.23120116349960    2.32963448450204
H           2.66245970180752    1.01287126065582    2.62394935066803
H           1.66559357743889    1.04039545160423    1.31982718396028
