    26
        -50.46658014  Gyration_radius:  2.40038093324 Dipole_moment: 4.049
 S          -0.14420014921520    0.00273991015090    1.32015924196625
O           1.29652175918547   -0.21281524647504    1.26122596705415
O          -0.52739209338420    1.09965613706669    0.41586086253475
O          -0.90281115007933   -1.19641452535844    1.01454410338612
O          -0.52742208662500    0.43519089344312    2.75789947637861
H           0.02794242626511    1.25105248417894    2.88211180699985
O          -0.30853626332701   -2.55515652743444   -1.14740692662558
H          -0.56735945692883   -2.22450702142458   -0.25478284294102
H           0.63137419238817   -2.30864550984680   -1.22979164687732
O           2.04498212100819   -1.20636149765257   -0.99967777076242
H           1.80274984111902   -0.85684446599127   -0.09876471126138
H           2.96284205080910   -1.47608065699010   -0.94356605188792
O           0.45769489783511    0.78313894591375   -2.00448552109147
H           0.14753769279198    1.05637149044152   -1.10870974947527
H           1.19399787300680    0.16744738985559   -1.84379406511600
O          -2.77887102076351    0.09443974707600   -0.45905565832133
H          -2.75314706065425   -0.65087238794740    0.15522089800777
H          -2.05215643769237    0.67376622915278   -0.13000282067005
O          -1.47413830742133   -0.76391649310058   -2.45211413961471
H          -0.69269796411000   -0.06658431833205   -2.42913885298956
H          -1.03939095029914   -1.61995983885305   -2.00611858304368
H          -2.14141526307470   -0.41214611240893   -1.73687117969928
N           1.15964881003206    2.38956291110728    2.42477008237187
H           1.74963116779711    3.03124556275926    2.93892463245459
H           0.69830589790413    2.89332563907735    1.67758307806534
H           1.73630948342702    1.67236727159573    1.99598036115306
