    26
        -50.45363130  Gyration_radius:  2.4978118306 Dipole_moment: 2.026
 S          -1.65222258849425   -0.70749250812791    0.35357222493258
O          -0.51184948804449   -0.96170543179737    1.22253102534558
O          -1.89737184435851    0.69824041134065    0.14178714625661
O          -1.52818432208899   -1.47265874580315   -0.88684871717875
O          -2.92173245269213   -1.28950807815236    1.08698101495293
H          -2.74326773432747   -2.22252936544250    1.04939488800545
O           1.25653780602360    1.07176484398320    1.06089378754313
H           0.82973708920170    1.83229678245350    1.50537718570044
H           0.63056627089680    0.34155756081673    1.22684132695887
O           2.12778825649063   -1.88139242289529   -2.00566278472116
H           2.08190324339012   -2.80268803530256   -2.26608069147623
H           2.12882701211042   -1.86926929369904   -1.00879852013819
O           1.95938902037153   -1.79714085719144    0.60076053817401
H           2.40001957782218   -0.99769054118984    0.90701712737163
H           1.02201527236425   -1.67288723550775    0.84795389034842
O           0.16525754135390    1.58766922410974   -1.26780977669466
H          -0.71695009286009    1.48468789273500   -0.85453181354743
H           0.78658623368847    1.46987691326022   -0.49973228112215
O           0.05771085742200   -0.51944980738944   -2.56718818728241
H           0.18722565923769    0.44742446563688   -2.11068697717572
H           0.92591674380657   -1.05119802160081   -2.41873505438726
H          -0.65370993708096   -0.95903568321615   -1.95861223499224
N          -0.71673639653324    2.74042388226740    1.94496639080608
H          -1.04058013400966    2.74793947510511    2.90421987371348
H          -1.32463381785834    2.11152858678561    1.42271743919420
H          -0.85224177582358    3.67123598873694    1.56967317952603
