    26
        -50.46157681  Gyration_radius:  2.43397517737 Dipole_moment: 3.053
 S          -0.76401225133757   -1.60660533949735    1.21370570446835
O           0.48794069953606   -2.31003065563569    1.02888842557409
O          -0.55026818063161   -0.24576661971135    1.70041284167023
O          -1.62428180890300   -1.62778271618644    0.04555976754449
O          -1.55052581894149   -2.37830394120729    2.34587846631184
H          -0.86784234469170   -2.59998588930408    2.97087469658170
O          -1.37117336024028    2.04362247287616    0.60182752901067
H          -1.15971375625873    1.31670911559195    1.22131687467711
H          -0.49728404117381    2.49102478435436    0.40503483269979
O           1.80149469781997    0.12666959309906    0.58336556706825
H           2.20015243609771   -0.74595562486752    0.65024957354648
H           0.96431919398768    0.04639298266369    1.08976964531005
O           0.77483866868517    0.12040742552011   -1.90591070469202
H           1.24479115638370    0.25091701674883   -1.05297017136631
H           0.75504208151401   -0.85996784885355   -2.01850907716809
O           0.46123775446814   -2.50005875946674   -1.63236114974214
H           0.57853901942194   -2.54263201962072   -0.66255221902766
H          -0.46838274116778   -2.69772732728975   -1.77233071344984
O          -1.63556154401675    0.50844949802181   -1.32068827468180
H          -1.77516528480855   -0.36181900150531   -0.81544175990409
H          -1.61083326651179    1.26409206190782   -0.53668873183338
H          -0.64277864657516    0.42716040865829   -1.66705706647375
N           1.05168833508707    2.93509026123264   -0.05030784978339
H           1.40464491274356    3.79944767965435    0.33910626949793
H           1.16521421767216    2.97279868011364   -1.05584441744332
H           1.62791989184455    2.17385378266499    0.29467192162092
