    26
        -50.45412435  Gyration_radius:  2.56350169435 Dipole_moment: 1.811
 S           0.08658723837231    0.78970833268096    0.43209004184442
O           1.32963563338428    0.13592691992087    0.84371171628571
O          -0.19489577285202    0.57163296151213   -0.97917562139719
O          -1.03928418495852    0.33179706083519    1.26967762021158
O           0.20063034554036    2.29349448375756    0.69979864143429
H           0.92112728401622    2.68564513639383    0.04832103592461
O           1.23497977690087   -2.41732439395148    1.16730460476503
H           1.82709622398434   -2.62184555790878    1.89378220440366
H           1.35013482805880   -1.44351201697135    0.98304378396645
O           2.42567748386806    0.48963546588816   -1.59532784040447
H           2.40814567718356    0.23813456157063   -0.65905873501812
H           1.49644862582440    0.39171503963956   -1.85132931616043
O          -2.74783706167557    0.01698206171380   -0.87392117224375
H          -2.82355578556155    0.38097563626227    0.01511029174393
H          -1.82056089402332    0.23278082108048   -1.12170954301322
O          -2.62269905168026   -2.54212187121891   -0.40481798135666
H          -2.69243621439087   -1.59086925674342   -0.71269763957292
H          -3.52061316387073   -2.85730789247668   -0.28731815179192
O          -1.22404972497951   -2.09341914481569    1.65647530673831
H          -0.25109566679736   -2.38082499012991    1.48105417952915
H          -1.16737414943419   -1.02298638375634    1.56638159142605
H          -1.78761821418049   -2.38081684556528    0.83704508614212
N           1.96991260031934    3.15315665078948   -0.92363668091982
H           2.73450567499888    3.66002197636998   -0.49883957203770
H           1.58347008601855    3.70980110538692   -1.67385822487744
H           2.32366837601991    2.26962013979276   -1.31210563554624
