    26
        -50.45726318  Gyration_radius:  2.46371199748 Dipole_moment: 1.965
 S           0.75905495574267    0.50507178356975    0.49948323708301
O           0.85079187493006    0.65442735888096    1.93004635766637
O           0.30650020713873   -0.83433465232414    0.10902502328044
O          -0.05578183621413    1.53585908011835   -0.14257126442676
O           2.19163719648805    0.67477317760180   -0.12888619796920
H           2.73847264159998    0.02184584584174    0.40598210938013
O           1.16062501311532    0.88527172590837   -2.69666444920031
H           1.64197110419012    0.79493292628012   -1.86054725440510
H           0.73235996374368    1.74352861445555   -2.64747261516231
O          -1.48478796210726   -0.73441072158753    2.06465093720992
H          -0.88721838730079   -0.07569097464553    2.44711401601131
H          -0.93906331810271   -1.12377948607624    1.35922152339270
O          -0.72255294900878   -0.98003661629914   -2.28572276421082
H          -0.32870281391454   -1.14829545283707   -1.39509530988724
H          -0.03110098365327   -0.45202602354734   -2.73910737469306
O          -3.48777977263838    0.12846428290038    0.58757600875500
H          -2.80247578426918   -0.25269032365426    1.19670039892464
H          -3.91866120081685    0.83590461185070    1.07041340223020
O          -2.09974539524042    0.88592060513917   -1.41417827853764
H          -1.28126290169983    1.26036865217325   -0.89409434466581
H          -1.64747208341892    0.02528957047399   -1.88815890180237
H          -2.73804902786658    0.55653020850932   -0.68380036090073
N           3.05459360790428   -1.07795803513277    1.56377091392332
H           3.91976648461176   -1.19807071043824    2.07457984267712
H           2.70443327053619   -1.98896639009388    1.29686899430050
H           2.36444811618214   -0.64192903706256    2.17086638102525
