    26
        -50.45412441  Gyration_radius:  2.5636569451 Dipole_moment: 1.809
 S           0.02498764498495    0.88840627086813   -0.16765070446576
O           0.90501488089407    0.11962231598311    0.70013627387406
O           0.02704530823742    0.37040207741897   -1.53652751151738
O          -1.34911863273654    0.91891698390641    0.37064665913718
O           0.48179808058189    2.35023904249234   -0.18581888151563
H           1.49193464078901    2.37172628909174   -0.46236463723036
O          -0.61359049859537   -0.13126156881798    2.81386459322737
H           0.10751622962681   -0.11577027669168    2.14492768533449
H          -1.19548516059799    0.57844791563808    2.52008922768222
O          -1.30949004446886   -1.79177147491907   -1.95139134467342
H          -1.67791617665916   -1.71904281459901   -2.83403713829272
H          -0.71481064230200   -0.99923989662410   -1.83431481995789
O           2.59537798553180   -0.42573593368558   -1.32449993916074
H           1.75358798705910   -0.25687068379480   -1.77509930106789
H           2.31499301184382   -0.54751972017233   -0.40517710510861
O          -1.96290897876388   -2.25454831876567    2.13840006986076
H          -1.36807923063768   -1.51993054737744    2.47151615911975
H          -2.60897079305721   -2.41653542031109    2.82820414724311
O          -2.72594204203624   -1.09299043307931    0.02289609852905
H          -2.19259739295249   -0.16870853850385    0.16102201165556
H          -2.24491491641286   -1.50558545692092   -0.78819754990435
H          -2.47064535722898   -1.65253951625578    0.85559203189142
N           2.93858340197415    2.29953417107955   -0.86866499081715
H           3.56728471763769    2.51680659035807   -0.10745255677665
H           3.17631847299982    2.87469324518401   -1.66529210194153
H           3.05002748418308    1.30925570845157   -1.12080637500090
