    26
        -50.46217621  Gyration_radius:  2.47786717895 Dipole_moment: 5.211
 S           0.82271598994410    0.74786688975951    1.75411625079779
O           1.42501960914251    1.95611000946301    1.26073488046036
O          -0.62927116218461    0.77063263864281    1.84514814983576
O           1.26840389798786   -0.46116154887948    1.05784160422369
O           1.34358442879777    0.58938899561513    3.25136013492489
H           1.98780630349394    1.28687661240157    3.31691931780737
O           0.56234246170572    1.72930555226133   -1.29300945052625
H          -0.37448433340170    1.89851638093887   -1.12171939142699
H           1.01114577713031    1.86860800217726   -0.44328417005155
O          -2.02534686977462    1.61032939161771   -0.21579812595809
H          -2.60800824101539    2.32232175901379    0.05106780993994
H          -1.52335359289951    1.34169680609490    0.58872514699255
O          -1.98307767832757   -0.90459603948473   -1.36143126577352
H          -2.17992384336164    0.02243537506230   -1.14571752638286
H          -1.46291109526649   -1.41924391496604   -0.11888162308354
O           2.30266825902361   -1.69923792013097   -1.11617197389772
H           2.01831056620626   -1.25289712616096   -0.29978981033944
H           3.10322813544959   -1.25272938703321   -1.39751616238678
O           0.27100455256643   -0.62711242952385   -2.60153460357141
H           0.96155567263495   -1.18239284243888   -2.19521792994756
H          -1.17063925212208   -0.86507839826140   -1.95259644941605
H           0.46386257119061    0.27841143697378   -2.28731385591359
N          -1.01867338671670   -1.67446428184701    0.87485666068317
H          -1.45356379743931   -1.07396181282167    1.57931692277531
H          -0.01077686079637   -1.34908441164242    0.87299714809259
H          -1.10161812196178   -2.66053973682946    1.09689827213701
