    26
        -50.46217691  Gyration_radius:  2.47795499493 Dipole_moment: 5.208
 S          -0.72971360279308   -0.19000921966629   -1.93644520981975
O          -1.74645246953226   -1.18549941151897   -1.73289173751244
O          -1.04374841995415    1.13352788730710   -1.42085172095742
O           0.60142382049947   -0.60528252374488   -1.48775542985164
O          -0.60851495340912   -0.01823347305229   -3.51568879633476
H          -1.16752587559507   -0.71774127667163   -3.83823500471933
O           0.61467996580566    1.41261086469670    2.05427281857381
H          -0.34850912394818    1.47442773565435    1.93876994656535
H           1.10887948415816    1.55774023775639    0.70839768796872
O          -1.95120385920930    1.36969014760067    1.03247522660718
H          -1.66230079520560    1.30312610850988    0.09241477626911
H          -2.78201047328741    1.84654781796319    1.02960517810529
O           2.21308537975620   -2.12566644681484    0.06762739601420
H           1.64636826950311   -1.64308280126188   -0.55889737059975
H           1.96399452809020   -3.04868725816711   -0.00576737883104
O          -1.46263533155716   -1.39221900935302    0.94890011449619
H          -1.82819015265418   -0.52671247575092    1.17868344818377
H          -1.58779109662116   -1.48080867821380   -0.00995028787782
O           0.89819900969179   -1.15101455525690    2.25945682999656
H           1.53965689935954   -1.48107433659895    1.60378806301476
H           0.78842795422338    0.44373486905720    2.25995577862084
H           0.02381501435415   -1.39186551774874    1.89429563641805
N           1.36031799427701    1.61648147405847   -0.37988411120447
H           1.22869447292504    0.65073352391837   -0.79562845416733
H           2.29368367036491    1.97782692074563   -0.54392495298768
H           0.63736968074166    2.17144938654684   -0.84272245597084
