    26
        -50.45787833  Gyration_radius:  2.4560314464 Dipole_moment: 4.239
 S          -0.76628974915724    1.23212769296070    0.32594236385079
O           0.61207366953816    1.26665640165154   -0.17404405973390
O          -1.37916916369446   -0.07040598907914    0.04500822153922
O          -0.82623165423478    1.54331736451127    1.74748789946558
O          -1.57356791301342    2.30753715478220   -0.42510847736471
H          -1.48330548925741    2.06022806944126   -1.40649284511482
O           2.24345985557350   -0.12577886604779    1.34312757297839
H           2.25220243118273   -0.96958283524377    0.82932362257945
H           1.77474869077002    0.51963631158882    0.76159783388784
O           2.06560360545341   -2.17930472490984   -0.34360703150324
H           2.84329420864427   -2.41962037696338   -0.84900537899014
H           1.43540346732434   -1.76946459702472   -0.97666543144501
O           0.36113539101831   -0.71336450387217   -1.84957562395662
H          -0.45575315326691   -0.90788565059891   -1.36184050458763
H           0.67692971824487    0.08646836381988   -1.37491453688418
O          -1.18455265338186   -1.82333521604398    1.95131498548551
H          -1.29763549405142   -1.22323991608907    1.16788367023125
H          -2.05115461849534   -1.90036454853480    2.35427799999722
O           0.43714975944146   -0.18662927097422    3.03131221061551
H           1.31995149993687   -0.21775965958029    2.39144242361293
H          -0.08028149125164    0.62373263251665    2.63894438016287
H          -0.14668821935785   -0.97310167696839    2.73936132523871
N          -1.24514483255471    1.55275873523011   -2.89901451781930
H          -2.11047242926448    1.34328905911077   -3.37909802119405
H          -0.68628675535341    0.70330933587575   -2.85013789115243
H          -0.73541868079624    2.24077668044569   -3.43752019989871
