    26
        -50.46277969  Gyration_radius:  2.44225631534 Dipole_moment: 2.175
 S          -0.29289833409447    0.24302038137448    1.26508783512341
O          -0.79528048588947   -1.12522921653819    1.29136020435026
O           1.10658517718299    0.28451596532865    0.86348989656273
O          -1.10527108054135    1.09199232089031    0.39262850060717
O          -0.42003307543621    0.84674468935798    2.68995444554007
H           0.16471984880154    0.24489647477504    3.21564296712137
O           0.13756233640712    2.92459632287534   -0.96548215455416
H          -0.25608736432960    2.28789496840089   -0.31586699973104
H          -0.49217077539916    3.64326720039696   -1.05040044416020
O          -1.92070532126857    0.10904005774349   -1.91295806953699
H          -1.68396748119041   -0.82872983793005   -1.79003755862730
H          -1.82928915170634    0.50106485294518   -1.01409208431811
O          -0.71478407156787   -2.16862266038280   -1.06002175224544
H          -0.96795621299594   -3.09091853210257   -0.99998629462281
H          -0.76373995703707   -1.80696715165036   -0.13046098837975
O           1.49246117877638   -0.62745028582213   -1.53530207079435
H           0.85240359348458   -1.36140158655634   -1.50749459282636
H           1.48420868739529   -0.25390239586214   -0.61452245193791
O           0.21358861308011    1.12202950785227   -2.76441899534068
H           0.27683392233805    1.93636575741111   -2.14822810168122
H           0.86549341699364    0.39517391689525   -2.32557292736069
H          -0.73744208085358    0.72284402634563   -2.55689975023427
N           1.21417828961777   -1.06930731079714    3.35542290267559
H           1.80564554592976   -0.75220343089194    2.59418383808195
H           0.57797753651405   -1.75411908613691    2.96325625876793
H           1.78796725578317   -1.51459493791834    4.06071841751624
