    26
        -50.46004785  Gyration_radius:  2.42157992166 Dipole_moment: 1.654
 S          -0.64536082719805    0.53338054673904   -0.25683650335441
O          -1.85908285295331   -0.10234249984887    0.20371577834543
O          -0.37765571108433    0.29974889637808   -1.67035935665726
O          -0.77449261862831    2.07781213671237   -0.12371020835363
O           0.50906779124783    0.14743754103700    0.57033929178095
O           1.72007649482705   -1.96930962516478   -0.45414348969860
H           1.43200820736629   -1.28650416977831    0.18646014104712
H           0.85168162394340   -2.39665414227362   -0.71400482290168
O          -1.20497557397865   -0.11452072132881    2.76573945267941
H          -1.60178304371259   -0.27283064078013    1.88513969680522
H          -0.26068701578210   -0.23593165061790    2.62473457936395
O           2.28520089345926    1.71233784180308   -0.55208125753339
H           1.68267248685068    1.20619394485108    0.03811732597525
H           1.80671522100885    2.51103156717457   -0.78571947888208
O           1.98663112216098   -0.23795358812917   -2.19544875923809
H           2.36722850841183    0.54174401334931   -1.67541991511735
H           2.01239667941654   -1.09142133918258   -1.50119766062411
H           0.96821426936150   -0.01720899575231   -2.14869933169058
O          -1.57997462801254    2.45199706718863    2.29978228808427
H          -2.52905186711475    2.59454545708065    2.30354863967460
H          -1.43713158796802    1.53897761053987    2.66011325215666
H          -1.07136281340511    2.29427337428482    0.80955718106198
N          -0.79544987171990   -2.56069885600856   -1.01280532225898
H          -0.98046974119499   -2.48166995918178   -2.00561973572751
H          -1.23340055154792   -1.75264687765833   -0.57442989237597
H          -1.27101461371986   -3.38978692145055   -0.67677188254998
