    26
        -50.45852407  Gyration_radius:  2.50822798264 Dipole_moment: 1.937
 S           1.00132407620298    0.99113275453633    0.18368866790643
O           1.41159612393028    0.53234229180922   -1.13647003828126
O          -0.40947358575976    1.41154594802729    0.16477323169769
O           1.22397385310184   -0.02497707201237    1.20077712141021
O           1.84420116245827    2.22754702695795    0.57474901380898
H           1.64704908578457    2.84624068667377   -0.18245633585605
O          -0.56128098437859   -1.47318211548290    2.57636183407031
H          -0.14814489600683   -2.30598546245169    2.32570583532774
H           0.03820253857048   -0.78505178978907    2.22568827132429
O           1.23960180282590   -2.57179894646594    0.48864158462101
H           1.33800381850123   -1.63070661403405    0.75950075226110
H           2.12538009557928   -2.88981678864311    0.30801380578164
O          -0.01283064177975   -1.59493674592584   -1.68867127723014
H           0.60511309755701   -0.82550439157778   -1.66692200970480
H           0.31040076218959   -2.17806474734441   -0.97060165459468
O          -2.82444660759014   -1.29996592503357    1.28466192498541
H          -1.98988455963804   -1.40585001603889    1.82134046792597
H          -3.38674626320988   -0.70272774531940    1.78097803969661
O          -1.94261903799926   -0.24614615910045   -0.85114813435033
H          -1.22837634894323   -0.90436275866844   -1.27074243074134
H          -2.36502265347791   -0.71405499292034   -0.03626198044739
H          -1.34131601022225    0.52218395746952   -0.44402522280671
N           0.99424199621144    3.29097805002057   -1.63972841740085
H           1.28354220089464    3.97734175638326   -2.32477882875975
H           0.00208327253326    3.39523685817867   -1.46950569829983
H           1.14542767266465    2.35858294070957   -2.01356851238261
