    26
        -50.46309540  Gyration_radius:  2.39399103763 Dipole_moment: 2.609
 S           0.97892559592803    0.17442359834505    1.20536752932803
O           1.32473606184490    0.42371854694240   -0.20731401996841
O          -0.45637787512874    0.38007887477985    1.38837066637359
O           1.40685129927510   -1.14406517424764    1.61608012578065
O           1.73594509258086    1.22188545236969    2.05382606109777
H           1.26551616360806    2.07050519848478    1.81199703951273
O           0.13179467782969   -3.06022276752944    0.45721795506259
H           0.32896921715590   -3.89280905174054    0.88876105116463
H           0.63729164615037   -2.36441907362592    0.96091760205325
O           0.87692855369913   -1.65233477531535   -1.75387243653938
H           0.72514424171348   -2.37580944241238   -1.11956023334950
H           1.23571265682490   -0.90935045349794   -1.21080565072271
O          -0.37574126195000    1.69695798622100   -1.63807783032427
H           0.29071677191341    1.28759050043983   -1.01390325718770
H           0.12546355298519    1.97667494839627   -2.40720069968234
O          -1.98920966862679   -1.37213156623431    0.26536196107300
H          -1.43347293622622   -2.16719997449834    0.37379103038222
H          -1.51572084043849   -0.67016621768035    0.78723835282165
O          -1.39465511762268   -0.62844637982200   -2.02719091167226
H          -0.46032876001089   -1.11870640512905   -2.05916365310205
H          -1.78047839527543   -0.94421048578048   -1.06721276121878
H          -1.14688401254918    0.35378617916407   -1.92128110100013
N           0.11310829402743    3.10087627583990    1.24263440278964
H          -0.24754125969230    3.84303009812068    1.82803743977276
H          -0.54647866543832    2.32566113206933    1.25328549088203
H           0.16978496741815    3.44468297633348    0.29269583668272
