    26
        -50.45651469  Gyration_radius:  2.52438167163 Dipole_moment: 3.995
 S          -1.22893162961450    0.29647428178363    0.94011220159709
O           0.16335261714514    0.33849320219952    1.43763525035320
O          -1.21632277608598   -0.01723628895173   -0.49520183470947
O          -2.03156146620121   -0.64108083526568    1.68819764437720
O          -1.81482047864681    1.70828565212743    1.11448569243291
H          -1.05254328153740    2.31706919003211    0.80264048028071
O          -0.95580017434361   -2.90212818130633    2.36554706580750
H          -1.48590539776196   -2.10830168709099    2.09122212502766
H          -1.02006804874090   -2.94267945656965    3.32165193319146
O           1.95614499047098   -0.17044711995150   -2.48819079430096
H           1.28818432772203    0.54260241937328   -2.42238886963296
H           2.12013343091443   -0.31248462925382   -3.42163541289622
O           0.46810425796018   -1.94172510520215   -1.12338228676931
H          -0.28304075191085   -1.32033915194386   -0.97002291945828
H           1.12631426285810   -1.41442249418883   -1.62951137343901
O          -0.13110513592282    1.55506133549772   -2.24712258539369
H          -0.57052406953140    0.98444470985834   -1.56205334569725
H          -0.77622500547732    1.65161892853441   -2.94971349128514
O           1.12911584295827   -1.93606097777225    1.26969910234171
H           0.39464010846247   -2.46846566538486    1.74123054045542
H           0.94403453259093   -2.06044992970374    0.21929075501595
H           0.81989867984235   -0.93543047203087    1.40774294087640
N           0.29499670107744    2.91921820410623    0.30592797936166
H           0.35968251116825    2.79458458954605   -0.69928547162406
H           0.88006692415909    2.22011750900189    0.75082063997509
H           0.62217902844411    3.84328198255054    0.55230402412967
