    26
        -50.45651484  Gyration_radius:  2.52428765364 Dipole_moment: 3.987
 S           0.92669693744713   -1.26367687923286    0.16957556845980
O           0.03198614815650   -0.91293013770620   -0.94179675435746
O           0.88040421450616   -0.18877150110810    1.18454635798664
O           0.59668715279036   -2.54741297410626    0.74053781699861
O           2.36533930840321   -1.31197607294341   -0.37337443836831
H           2.60184970749119   -0.32296719302651   -0.49454908593824
O           0.42495277545830    1.16475713433459   -2.44146038331402
H           0.34027462078952    0.85735201768921   -3.34561532069236
H           0.31343701991249    0.35509666651408   -1.87587732542285
O          -2.28305818426400    0.05733306194320   -0.14462551635957
H          -1.51289804413034   -0.42120687355710   -0.53416538650987
H          -2.17508897637220    0.98708575421458   -0.44683626474445
O          -1.62610951165013    2.44107653472247   -1.19434137886623
H          -0.83380505115227    2.09474059561028   -1.65390088413772
H          -2.18779119342135    2.83245505165812   -1.86485360431645
O          -1.33125960236381   -2.65549342604971    2.47267768067724
H          -0.94495871964979   -3.03275965712457    3.26531887464812
H          -0.63780056279740   -2.73940009067749    1.76663592704741
O          -1.39296385495793   -0.12886332352193    2.16551569710137
H          -1.50284271730631   -1.11672292232118    2.40469160613934
H          -0.38951375015207   -0.07524802976749    1.83936578238771
H          -1.91320976522880    0.00021736936903    1.23500734918850
N           2.62660487843794    1.23427302746871   -0.51509822977276
H           2.07262182112884    1.56171654257070   -1.29996340629806
H           3.47254242373278    1.78335793347168   -0.44787149014580
H           2.07790293519034    1.34796739156954    0.33045681862244
