    26
        -50.45651486  Gyration_radius:  2.52411261499 Dipole_moment: 3.987
 S          -0.28161555397076   -0.39268353612882   -1.49939982711594
O          -1.28420698954298    0.31958481243686   -0.67755220213063
O           0.93261948535959   -0.60324271891864   -0.69947531324698
O          -0.80543989076903   -1.63355369024607   -2.01773771371190
O           0.07682073574580    0.53050668569590   -2.67662799614641
H           0.16570424235663    1.44958089571997   -2.23325276817228
O           1.38539779866596    0.93294028645371    2.68962714759158
H           2.12051896540718    0.93011952016266    3.30434313400643
H           1.74261811935828    1.20921612471888    1.82074657424731
O           0.42847351768251   -1.39857546306326    1.76010367443638
H           0.71953328117322   -1.24352058968415    0.82998746504907
H           0.71373855261919   -0.59241970981073    2.24604338286946
O          -2.28375335678261   -3.08473132883378   -0.45668581652043
H          -1.66961750058017   -2.65010073896072   -1.10492825318023
H          -3.11807955155634   -3.19261321857763   -0.91726160647763
O           2.36790187345213    1.36301333046070    0.19129247738990
H           3.27601072599898    1.14767090806895   -0.02803725228566
H           1.82215415024860    0.62467257792062   -0.18937134327695
O          -1.97462782135374   -1.16183252524585    1.18312998102465
H          -1.77601620067376   -0.45521147690242    0.42301606049934
H          -2.19692306785963   -2.00857125096772    0.65516071399894
H          -0.98666262152520   -1.31881730802841    1.57330714103047
N           0.18040871435036    2.66084495774620   -1.25492635047198
H           1.02823716326025    2.62358334087721   -0.69822100105189
H          -0.58951422407354    2.32917103904551   -0.68377203582092
H           0.00631948305299    3.61496908606110   -1.53950827253090
