    26
        -50.45422538  Gyration_radius:  2.45347633268 Dipole_moment: 3.540
 S           0.29066157276869   -1.11662146546405    1.42196267938155
O           1.60478218732463   -0.86170672731359    0.83940929269758
O          -0.12009345604303   -0.07921726104453    2.33957521068606
O          -0.69184698952606   -1.40127133387631    0.39179913131291
O           0.42261719815152   -2.44810096129246    2.27120769120286
H           0.85691601230222   -2.14934995364646    3.06335708725988
O          -2.49968080956081   -1.25862318729605   -1.62414285715028
H          -2.04650434365070   -1.55081248389867   -0.81782472584831
H          -2.77863432518343   -0.35596384978667   -1.44337786062277
O          -0.14922419716935   -1.51428409728016   -2.81880814089209
H          -1.07560054442602   -1.36896523072978   -2.50214471205105
H           0.05207937065808   -2.43058682215129   -2.61975142538852
O           0.22950119523326    2.09864340372273   -0.90276104616649
H           0.73514433473732    2.28432564693014   -0.05522158275690
H          -0.65139887129919    1.78596969190600   -0.59453191676672
O          -1.85993739248964    0.96778120694564    0.31541009997049
H          -1.45843334302510    0.07860505267714    0.40512352830905
H          -1.87442181792839    1.31349864132761    1.21097636791914
O           1.42496229445345    0.02379217528068   -1.51359174389204
H           0.89976090291383    0.97357164815005   -1.33634539557365
H           1.54888258813018   -0.38688228872637   -0.58244678626062
H           0.80646437215700   -0.58433474188572   -2.05683349355513
N           1.47170601671791    2.08716504171684    1.41453107657975
H           2.38740703924116    1.67973210418868    1.26820273110177
H           0.90327945761836    1.36205907180641    1.85566599823245
H           1.57161153789405    2.85157672974327    2.07056078226933
