    26
        -50.45422525  Gyration_radius:  2.45346547256 Dipole_moment: 3.540
 S          -1.28747744173418    0.71722725182063    1.08748280953960
O          -2.06080455700939    1.11505523998759   -0.06599651910517
O          -1.32707498615260   -0.72368747954222    1.31903605587136
O           0.07923404840695    1.20613038075823    1.06519521685772
O          -1.96775604950459    1.39683411259392    2.34712746325023
H          -2.89533949809583    1.26426155498796    2.18150300580523
O           0.37440108777328    1.39305189333815   -1.55388099103737
H          -0.46782763537164    1.67069491280790   -1.92180494727037
H           0.22357198998871    1.37994736843805   -0.58584859223568
O           2.77572908350201   -0.57233747502467    1.49279641721241
H           2.85404987866443    0.29806453623382    1.02826340746532
H           2.61100081108431   -0.36098480981903    2.41366593503224
O           2.63206047203089    1.83802427355706    0.40350938328277
H           1.74730059007862    1.89029091051902    0.79760604144565
H           2.48610442963235    1.85706199029751   -0.54705629534466
O           0.49851340040833   -1.25662901164335   -1.85606739506643
H           0.61470239530569   -0.27940041001449   -1.87415535864341
H          -0.49655465836110   -1.38705788899488   -1.89498824018893
O           0.78245049493578   -1.85231547747490    0.52540418838044
H          -0.06746528584098   -1.43076268971931    0.91381012653288
H           0.73615264898063   -1.64132665626593   -0.55305078498532
H           1.59343220465399   -1.36089467100209    0.91050690026711
N          -2.10831069730055   -1.32591756629585   -1.52242525285354
H          -2.19669742557989   -0.42337924946480   -1.05219387106950
H          -2.30852647924431   -2.03080184633028   -0.82318086834158
H          -2.82486884125741   -1.38114919374667   -2.23525783480135
