    26
        -50.45440519  Gyration_radius:  2.44954592613 Dipole_moment: 2.517
 S          -0.72946143543567   -1.33536277236914   -0.19286182369387
O           0.60470902254729   -0.82654793439690   -0.44660854179734
O          -1.60686385834449   -1.08073892071138   -1.40089064644075
O          -0.75160200837113   -2.71543253028912    0.18115867961075
O          -1.38194635734084   -0.45911408127541    0.89352269344839
O           1.01905834454129   -2.72206305361807    2.17751474208000
H           0.80927053631015   -3.46035706358651    2.75351845098390
H           0.45095657021068   -2.82406068808503    1.38788148217935
O           0.70534408821146    0.27875818184509   -2.92144289623524
H          -0.06574235186460   -0.08838615433989   -3.35818316190250
H           0.79077484137904   -0.21015615361483   -2.08564799467174
O           1.82373765164565    1.06805303764655    0.91754077936396
H           1.43080670566231    0.37657783499770    0.34110346965695
H           2.77139726665457    0.92293538143362    0.89347487157481
O          -2.28037000306875    1.27622716889309   -1.06420538985736
H          -1.39716576804721    1.80754843338707   -1.12382647208108
H          -1.93459408738649   -0.06095058732696   -1.33475403689511
H          -2.50181918790049    1.22708306017961   -0.12918652207330
O           0.28855637675958   -0.22568471995484    2.72785936642052
H           0.92442345084568    0.36927277483769    2.27885651775563
H          -0.74023982773997   -0.34438677985859    1.72037337733455
H           0.67622226613368   -1.13013872875523    2.68616847027053
N           0.01576486827994    2.46895290269920   -1.18481835704314
H           0.43907506649037    1.92191445340324   -1.93569216537198
H           0.56943154397931    2.31808569714242   -0.34786551584051
H           0.07027627585835    3.44797123168879   -1.43298937677146
