    26
        -50.45822191  Gyration_radius:  2.51211779241 Dipole_moment: 2.947
 S           1.15384973076099   -0.00539012003120   -0.08751533569804
O           1.61815325798911   -1.10838775479624    0.73767181489996
O          -0.00550792283867   -0.40117803209225   -0.89477767461646
O           0.84728040047976    1.18360391008430    0.70238104352707
O           2.28548248661336    0.39851160822525   -1.07103072682185
H           2.46851934334298   -0.45159889325396   -1.56050089368648
O          -2.28640893993784   -0.19323906964999    0.38639691478319
H          -2.67856853350890    0.61985984078338   -0.03927687395361
H          -1.48715332234512   -0.40915977796559   -0.15913266392098
O           0.33532063467806   -1.41787904054334    2.99008447917769
H           0.83695492770761   -1.40829145787580    2.13596872733886
H           0.99230521718366   -1.32811877827038    3.68317057209222
O          -0.40834962026869    2.13830056665628   -1.61621455423262
H           0.15453180769048    2.48889007893233   -0.91813087945440
H          -0.26454352499555    1.17507633306839   -1.56764646822953
O          -2.95043034490241    2.02244366903179   -0.84229523722594
H          -3.49745801579399    1.98832829133013   -1.62831683715606
H          -2.03091736428014    2.20942852678373   -1.15225967948954
O          -1.02608168571995    0.64505118055657    2.31936015091950
H          -0.26798691682346    1.02450253327922    1.75562756333936
H          -1.72398466446293    0.25041712262873    1.49891623203941
H          -0.60982110858397   -0.18106128862392    2.73759213562364
N           2.24579064263529   -2.06954039392660   -1.88816169487656
H           2.83797329153820   -2.77240526263181   -2.31245685512733
H           1.32638968852593   -2.11986872315704   -2.30911161672492
H           2.13466052526227   -2.27829508862305   -0.90034164251919
