    26
        -50.46302195  Gyration_radius:  2.50652965683 Dipole_moment: 2.705
 S           1.02981441336334    1.62086378626289    0.71681579695943
O           1.78416798067166    0.58229054709944    0.01692789718395
O          -0.01707526776420    2.18062353803071   -0.11738133814567
O           0.59468253389886    1.20253845601586    2.02926539823673
O           2.05819512967559    2.81046296209856    0.95080196759883
H           2.56782090825727    2.50344066351289    1.69361926038773
O          -0.54226471824987   -2.89250736867778    1.51018599457201
H          -0.83980375275307   -2.03293413605056    1.86387596847326
H          -1.32551136612722   -3.33799509282179    1.18288419166496
O          -0.82520980733666   -0.96661727340129   -2.24732456014793
H           0.05976780936157    0.16898420012312   -2.44905211644210
H          -1.45443333179377   -0.57854095349166   -1.59637568665580
O          -2.04209864213137    0.37221728664956   -0.28777677574689
H          -2.03838080866939   -0.02693376136053    0.59479470810384
H          -1.44189114620894    1.13433701841082   -0.21890523771461
O          -1.41705332826214   -0.43054685278610    2.29374629032416
H          -0.63211533167998    0.16673574850410    2.21433968235003
H          -1.79801322066381   -0.24872613551318    3.15444107424965
O           0.93998928739698   -1.98487723405258   -0.58888344494380
H           1.35668603242039   -1.17457164563729   -0.25725355772532
H           0.51965544360615   -2.40755953478728    0.18499366140041
H          -0.20997609601743   -1.52525267451849   -1.70335472937134
N           0.76376459534362    1.02632989083295   -2.32723995821405
H           0.25869418460794    1.78597504925001   -1.84027031708391
H           1.20789307905825    1.32259600405280   -3.18842045139043
H           1.44269544995275    0.72966749228322   -1.58445371791480
