    26
        -50.46798691  Gyration_radius:  2.46891263693 Dipole_moment: 4.268
 S          -0.50393397181018    0.80602298660578    1.94689320732567
O           0.70333118317152    0.02586305103356    1.65352218355192
O          -0.28735016200858    2.20832202982268    1.63552940148297
O          -1.68638333227244    0.24365678409832    1.35140932117738
O          -0.70203187031873    0.72895805668579    3.51574303086087
H          -0.03646895544408    1.33284929947717    3.82749520956976
O           1.59402263869885   -1.27372879118399   -1.89658970351546
H           1.87000304511388   -0.03235318998809   -1.18164100953011
H           1.41147065895613   -1.87359892004945   -1.13060789160503
O          -0.51868096293302    2.14385724355839   -0.93784655128304
H          -0.52466185247615    2.19956619991774    0.05068143226702
H          -1.09857674697140    2.84033030477116   -1.25050220690514
O          -1.91267741636723   -1.88576064226476   -0.13367514145026
H          -1.84669051382384   -1.10158925741741    0.46254942895775
H          -2.79575372111502   -2.23803714117719   -0.01628521843414
O           0.76678865437189   -2.39704328046802    0.35606214447220
H          -0.17772307169573   -2.49801778201786    0.16281309753671
H           0.81554290326189   -1.63209336947265    0.95368127328547
O          -0.88869775348815   -0.37838069196576   -2.20840513344098
H          -0.88106590227608    0.49572102021628   -1.79209616161560
H           0.69859580310582   -1.04742251309305   -2.24423712922550
H          -1.34410116060480   -0.96663885225405   -1.58183385732917
N           1.87108292855007    0.87922508998408   -0.54633991722425
H           2.78869755450902    1.30132181321258   -0.46640338072352
H           1.50426635332928    0.57698210143638    0.39661064477199
H           1.18099566053894    1.54198845049892   -0.92652708300326
