    26
        -50.45325146  Gyration_radius:  2.59638124605 Dipole_moment: 1.556
 S           0.64214473163696   -0.81959329427539    0.19611628399324
O          -0.36022934410843    0.30644593397511    0.48258620449468
O           1.94238502640906   -0.36074484743794    0.56649848201755
O           0.18626564326782   -2.03730712975443    0.80661463532870
O           0.56697442032221   -1.02935958249026   -1.33227707202871
O          -1.95386743414966   -2.22432940326029    2.40580163116937
H          -1.71577431081150   -2.03390158011975    3.31400698984623
H          -1.11668910835821   -2.28859150714255    1.90620497173378
O          -1.69446262365771   -2.60098188048301   -1.23768575059870
H          -1.42666413333803   -3.23045468132697   -0.56142973603205
H          -0.88191041878242   -2.14336226738802   -1.49637769524463
O           2.70361423812615    2.02382192117762   -0.44744818918998
H           2.65392347636132    1.19594834669298    0.06227400238879
H           2.02587413578080    2.61141208083952   -0.03961658592344
O           1.49850427907825    0.99878612081992   -2.45712600649399
H           2.16476541822185    0.72833131594160   -3.09280271476888
H           0.93524424560848   -0.18223900387167   -1.81297380415480
H           1.99580716700767    1.48938419016351   -1.71614019482936
O          -2.63448782986977   -0.67614893445758    0.33245199697813
H          -1.35565630635731   -0.06389785441727    0.40382689099206
H          -2.50655584724116   -1.36355468315302   -0.36455174827048
H          -2.66622758679748   -1.17906551496437    1.17334672145570
N           0.50406741473877    3.19789761331558    0.63316132812609
H           0.49692957920998    3.61175871123446    1.55660300967107
H           0.05425558163469    2.28916796511777    0.69303277517027
H          -0.05823043393830    3.78057796525956    0.02590359417415
