    26
        -50.46256843  Gyration_radius:  2.41377238643 Dipole_moment: 3.850
 S           1.20447070660590    0.34052249095878    0.24076639969468
O           0.18447324790285    1.34780925246048   -0.07731726216033
O           0.79480151819167   -0.42902670780296    1.40694924199702
O           1.47042087755999   -0.51371890092570   -0.90911941609783
O           2.52209211695678    1.08614529474161    0.56082707892379
H           2.28021942322773    1.60915189494128    1.37405841605730
O          -1.24934440073977    1.52486874763066   -2.26912773704201
H          -0.65449313443449    1.63656463223416   -1.49149463299893
H          -2.14326152307883    1.52059488064531   -1.91734230167326
O          -1.68098714231897   -2.06591226087066   -1.05572674945868
H          -1.97169660363716   -1.33676759622274   -0.45381108619709
H          -0.97435957247995   -2.53982028300247   -0.53962826368878
O           0.40772694708511   -2.83200603245558    0.33903935816806
H           1.15371510621526   -2.87487771035054   -0.26468428503088
H           0.55563884529844   -2.00949203839476    0.85249331706132
O          -1.94100178614805   -0.04449818278845    0.63958838958238
H          -1.67293478610892   -0.46023418875948    1.46337645684542
H          -1.18950568868997    0.54329550299263    0.40729050592400
O          -0.30006240732625   -0.81480606217372   -2.67249385561327
H           0.51818823210374   -0.70211957182615   -2.06438658247727
H          -0.97398448992846   -1.43547553358366   -2.03894126541901
H          -0.71853002436434    0.11419947762923   -2.69466532913956
N           1.30804614481218    2.08443213453412    2.63796851290017
H           1.55899033217575    2.40129164444451    3.56554181082360
H           0.91378400915991    1.15021664843878    2.69757267798682
H           0.59759405196317    2.69966244750007    2.26326661103502
