    26
        -50.46961702  Gyration_radius:  2.44260219873 Dipole_moment: 6.039
 S          -1.24184587560371    1.48612723482489   -0.06398187293220
O          -1.95691287565433    0.31088639569294    0.40165375531270
O          -0.61249021822216    2.20897267110113    1.02591769239388
O          -0.30541165090709    1.19051022490047   -1.13644468030110
O          -2.32448094903260    2.44694985311180   -0.69047387701970
H          -2.93124111897693    2.53415386957094    0.03609844316964
O          -2.36345465427946   -2.07525382577199   -0.79980397766208
H          -2.09205074493744   -2.67955092776040   -0.10526241062869
H          -2.36895337578866   -1.19089177744359   -0.39050750933124
O           0.00607756049537   -1.16641494901490    1.49756167695754
H          -0.75922933109289   -0.66891135604945    1.15478328869794
H           0.53555158081270   -0.52699989143601    1.98954284844480
O           1.46811202279177    1.19118802861679    2.16682907304528
H           0.65736936864248    1.61994474585768    1.78306991528499
H           1.69943295194867    1.70395673450184    2.94242844221376
O           1.60139874844869   -1.92667478611525   -0.52532783915390
H           1.02602778957008   -1.91103719530722    0.26923739175971
H           2.06185237215447   -0.53539382214014   -0.47219449044175
O          -0.23217557327609   -1.31344960019828   -2.29855748065564
H           0.97081865589725   -1.86218417349423   -1.29239547558101
H          -1.05012657913159   -1.72384325647794   -1.95538330802221
H          -0.31605886043191   -0.37236023523658   -2.07681194422165
N           2.15256885583101    0.56694233563039   -0.39119539533289
H           2.94026158431048    0.93291586785536   -0.91303254436536
H           2.19423459099596    0.82595205573797    0.60860907329443
H           1.24072573540502    0.93446576902798   -0.76435879493643
