    26
        -50.46206242  Gyration_radius:  2.40742974939 Dipole_moment: 2.077
 S           0.88856933826554    1.56368488965658   -0.08542381748562
O           1.28111138162333    0.66392916599235    0.99469481961045
O           1.25937643836129    1.02473946287104   -1.38247650239130
O          -0.50770646935283    1.93516082700930   -0.00349922884914
O           1.72279298726557    2.88973651448835    0.10107077379173
H           2.59169889215084    2.60973422143787   -0.16523019040097
O           2.57378643716445   -1.67544289496545    0.89819616041625
H           2.10336643653784   -2.21387900751574    1.53822889119887
H           2.23950826114280   -0.76506353101601    1.01916798714199
O          -0.86973549807610   -1.79262305726171   -0.94029412007412
H          -0.83322667918194   -1.56067329540473    0.10589225330343
H          -1.22292120745314   -0.94844455258581   -1.39355431974618
O          -1.41598649695997    0.48234917482187   -1.97821717232908
H          -1.18609606336558    1.09976854406343   -1.24595113566040
H          -0.71679662816213    0.61476409849482   -2.62598657316049
O          -0.68170057913864   -1.05626040953095    1.43027621338923
H          -1.49237819026226   -0.49652086261207    1.58770641009259
H           0.05592477434898   -0.40877968021533    1.37441463597674
O           1.53629865527748   -1.59079423028144   -1.55322457800650
H           0.15245795443434   -1.83477572574225   -1.24589644675983
H           1.54451647495696   -0.60812285692202   -1.61106275222022
H           2.05195070377039   -1.79599858681815   -0.74046471611391
N          -2.64185176631792    0.72824409592015    1.52869706391159
H          -2.95678816632039    1.14741558818051    2.39403390010250
H          -3.45050484753158    0.59425606574437    0.93475686867123
H          -2.02566613318185    1.39359603219085    1.06414556559262
