    26
        -50.45259857  Gyration_radius:  2.48630828794 Dipole_moment: 1.290
 S          -1.09393421518138    1.44379673599821    0.27709195102106
O          -0.00484525351401    2.13972316806296   -0.41254270460392
O          -1.63418960026309    0.38720651123754   -0.57156817191128
O          -0.75217525989925    1.01563817903155    1.60401750610774
O          -2.25187160244198    2.50822059783069    0.43170761312893
H          -2.46533563340825    2.71927520714408   -0.47098099288930
O          -0.57239818260251   -2.02065691764946    0.13262459035830
H          -0.81152177228610   -2.22426490953101    1.06035606766938
H          -1.11701898044633   -1.24096017213392   -0.07259320761931
O           1.41683196866286   -0.37743843017652    0.81894776225154
H           0.79488416541815    0.25766777004465    1.20820622101594
H           0.85328760463321   -1.13714873973609    0.55084959490327
O          -0.32745151176708   -0.82206673021191   -2.52830081837630
H          -0.05957231642865   -1.61479909939725   -2.04856356403477
H          -0.98793011216990   -0.39251958885878   -1.94225146096863
O           3.16710047599509    0.37068521200667   -0.93381582913777
H           2.57671225409224    0.01712085411112   -0.20889526036137
H           3.67292156116301    1.08476332689603   -0.54152381696189
O           1.22920210763599    1.15787524745923   -2.32798974790211
H           0.69318262190022    1.63547406860555   -1.56196172471520
H           2.10319330377198    0.84151627044626   -1.85466281118206
H           0.67083462093298    0.30965482971612   -2.53282374756183
N          -1.23696487315165   -1.67552244287251    2.75623759076763
H          -0.55437967621500   -1.87894974118469    3.47628149402905
H          -2.15552856645838   -1.81984342873604    3.15711862035255
H          -1.15303311797221   -0.68444777810129    2.53503483662034
