    26
        -50.46648884  Gyration_radius:  2.43202466669 Dipole_moment: 3.498
 S          -1.02179996379335   -0.43762129621640    1.38439313915396
O          -2.11111600705499   -0.22075195982959    0.43137600054730
O          -0.35429990163053   -1.69661318480143    1.16687441774942
O          -0.12554634946068    0.70548833824904    1.41712195899496
O          -1.68119468188504   -0.52569267090252    2.82084444871042
H          -1.73177031034078   -1.46699397514704    2.95062791252941
O           2.42490515078081    0.04846462193909    1.82380626390922
H           2.80099197173488    0.79396842096115    2.29487116399511
H           1.46382216808026    0.21632137390682    1.76346127910181
O           0.37415471651966    1.64841755684233   -1.01922510907983
H           0.32374011444700    1.36150487679404   -0.08149843924452
H          -0.40793559932962    2.22054312002742   -1.10769983244211
O          -2.22072488697603    2.28105369615323   -0.57557082198346
H          -2.28118799444158    1.39246873241317   -0.17166072765844
H          -2.52692446310161    2.89483480212374    0.09313499772765
O           0.98872299384549   -2.31319052080362   -1.08431959423600
H           0.64158697266806   -2.33116412197483   -0.17286572678446
H          -0.06864830418021   -1.41142077785683   -1.65190977706839
O           2.64172561897718   -0.23423467208056   -0.87135405002250
H           2.73289382661684   -0.20270086719828    0.10121249305132
H           1.75562126280151   -1.69239642815138   -1.05506153881752
H           2.14948571042870    0.55774392692586   -1.11181060966975
N          -0.78468642407126   -0.60607461238995   -1.83345976321198
H          -1.46541650471993   -0.60152356234183   -1.03942213263092
H          -1.25387380394842   -0.68700188499765   -2.72874711295522
H          -0.26252531196583    0.30657105835637   -1.74311884966607
