    26
        -50.46648880  Gyration_radius:  2.43221911888 Dipole_moment: 3.504
 S          -1.44214069907274    0.58286645872024    0.85680523260088
O          -2.06981278557296   -0.03598188102944   -0.28386484211769
O          -1.03337293421897   -0.40079786616996    1.86043559520669
O          -0.33924249674668    1.46486118046739    0.51514067737801
O          -2.54635888723937    1.49416791537924    1.53245366791571
H          -3.34731089101923    1.10055600885318    1.20232989270611
O           1.95114081717287    0.13723110514213    0.25785081935551
H           2.20745049883475    0.12297923793542    1.19643510451266
H           1.16814038310381    0.72980454359299    0.25934767774625
O           1.41529357213410    0.03358579626737    2.90950976206154
H           1.39651889303695    0.79170038112931    3.49481101251098
H           0.48942732543672   -0.11332651578391    2.63099497093131
O          -0.33089800657337    2.22278774972330   -2.03979872220513
H          -0.44901573101649    1.97106912295824   -1.10266265303669
H           0.06497825026066    3.09595567968087   -2.03773164309322
O          -0.82033388627999   -1.75828858799601   -1.93414171792514
H          -0.11294992037864   -2.07186592738165   -0.64771195388745
H          -1.47103706621000   -1.13858415803970   -1.55448608288927
O           1.10397286945481   -0.02601490253767   -2.56411465877508
H           1.69984324993052    0.03769198423650   -1.81031032694947
H          -0.14630831587540   -1.18630843466454   -2.37326430050594
H           0.58204595910632    0.80026864871219   -2.55783338366248
N           0.39364642734472   -2.02119953965578    0.31923555349939
H           1.18032271772662   -1.32368355651305    0.22709418701034
H           0.72398299854622   -2.92409317142272    0.64155321331975
H          -0.26798236188675   -1.58538127160248    1.00192292829126
