    26
        -50.46648852  Gyration_radius:  2.43211477497 Dipole_moment: 3.483
 S          -0.30104608648137   -0.19572571721539    1.73925117443579
O           1.09553682530309    0.22606180428402    1.85474001269582
O          -1.18063482451419    0.91219993562296    1.46189025573276
O          -0.43371699475928   -1.30038254913915    0.80471578913841
O          -0.72793442634244   -0.75843364218817    3.15604391469774
H          -1.19000612248231   -0.01337432792984    3.52592177659123
O          -2.70104225603357   -1.24812908332835   -0.59448964822987
H          -1.93593336993465   -1.24593230524124    0.01392327866666
H          -2.90267934857573   -2.16838288983431   -0.77248769566971
O           2.85188869334776   -1.40180483457722    0.60907860774275
H           2.26946427203714   -0.83481101992145    1.15287293413937
H           2.93723874694624   -2.22681772192976    1.08850828712776
O          -1.05315547618424    2.40868840481679   -0.77333238490571
H          -1.35594960295200    2.00912786225790    0.06344127555928
H           0.39574756430032    2.04633329332698   -0.62049646698497
O           1.05911540579186   -0.94716185530093   -1.36805848237303
H           0.42067077656649   -1.16481591816778   -0.65440788135413
H           1.89581549959382   -1.29961659571787   -1.01791365210053
O          -1.40017584940318    0.32162181090023   -2.39298235286471
H          -0.57680398873115   -0.17757406996033   -2.40830255086473
H          -2.01657323768119   -0.20382577056025   -1.84596327797985
H          -1.32350359824884    1.77006800986000   -1.47577807465043
N           1.34317750963229    1.53233914069926   -0.44069966801631
H           2.15197228740710    2.10583109096066   -0.65321434671395
H           1.33152995309074    0.64201487351541   -1.00729529131612
H           1.34699766830304    1.21250206477153    0.55503446749442
