    26
        -50.46186009  Gyration_radius:  2.40634050225 Dipole_moment: 3.265
 S          -1.35027654026229   -0.56376360007390   -1.03801402433958
O          -0.92931030504365    0.66610680821304   -1.69250185792708
O          -0.43389666352399   -1.65540915414277   -1.31828494337307
O          -1.58746869424921   -0.37175043850527    0.38058050071576
O          -2.73809230396298   -0.97995224572998   -1.66325092081432
H          -2.46366851114563   -1.36997636446785   -2.48562676949908
O           1.63139657379408    0.16069974479596   -1.76479989949663
H           0.68751016258630    0.44426578940282   -1.80268210545270
H           1.61643461690839   -0.75084563915480   -2.07261415747863
O           0.14351491137920    1.23462360851286    1.57138017244888
H          -0.58859618314727    0.68497849475921    1.21498206724574
H           0.14068449790977    2.04499320558640    0.98836702073225
O           1.04164820076023   -2.35356328412762    0.75787664320760
H           0.49382073065775   -2.24727683808081   -0.05281572669581
H           0.39356750464430   -2.37757825542605    1.49797095314600
O          -0.94817520435023   -1.91317056732393    2.47476483181224
H          -0.79680953133881   -1.27020666275874    3.17078093266334
H          -1.37617126104347   -1.42490848305267    1.74568826539159
O           2.08035958574062   -0.08949877102279    0.74532977594157
H           1.73081787703480   -1.09647585502636    0.82853376063841
H           2.03370715592099    0.09627540961444   -0.25589378210766
H           1.30736699220985    0.51500577459029    1.18161474250164
N           0.02560261707988    3.05076541754897   -0.35300639531494
H          -0.43179857848551    2.37216061309052   -0.96113503644010
H           0.88879786879221    3.32861738349048   -0.80307692508124
H          -0.57096551885652    3.86588389927485   -0.29416714241789
