    26
        -50.46648923  Gyration_radius:  2.4317594986 Dipole_moment: 3.495
 S          -0.31364250758047    0.49871002145830   -1.67396489376130
O          -0.82507597444021    1.65084719623277   -0.97475043329058
O           1.14706334823958    0.51484201543598   -1.76469621980871
O          -0.78741267855284   -0.76894916713145   -1.14544240291204
O          -0.86502286923790    0.59477610095786   -3.15486839388478
H          -1.04961866009884    1.52512740537399   -3.23159979948287
O           0.70379216404671   -1.61608716900691    0.88825072140219
H           1.40197954952849   -2.05353413061199    0.37029268524587
H           0.04102956647107   -1.38656849147997    0.20117285520818
O          -0.29745420658395    2.19872978918520    1.60835122092327
H          -0.69148698426450    2.21108093326697    0.71610900576186
H           0.97876182174507    1.50988832942423    1.22099974174177
O          -2.96001423830968   -0.53813014342499    0.38056417895839
H          -2.21841870953161   -0.55203370176890   -0.25610265712592
H          -3.43855741593833   -1.35962830703807    0.25692805602723
O           2.30526592809471   -1.87437252138217   -1.27826274791657
H           1.93292478771477   -1.01299864158086   -1.55342850936499
H           2.13339540521084   -2.47794166993964   -2.00205540367926
O          -1.28196535320036   -0.11941708218339    2.47825971312592
H          -2.01725469804612   -0.22742238637967    1.84358225435049
H          -0.64643659226601   -0.80888778287658    2.25897099537046
H          -0.75884015213996    1.46647290455423    2.08302822259075
N           1.73226992113926    0.83815999145325    0.80229995630694
H           2.67170459054113    1.04867062411514    1.12078625959097
H           1.65766399610750    0.88660870100664   -0.23982726078196
H           1.44534997134040   -0.14794279766263    1.04540282540386
