    26
        -50.46648788  Gyration_radius:  2.43205577242 Dipole_moment: 3.453
 S           0.82287491305040   -0.86699524061904   -1.31301505850844
O          -0.16800338218203   -0.19050619614299   -2.15082556000202
O           1.88470190852287    0.01876168531301   -0.90537930260227
O           0.18123895257729   -1.56216185393956   -0.21001954049409
O           1.49641658413636   -1.98338977427428   -2.21096727058593
H           2.31023601762995   -1.55957795919825   -2.46300026024769
O           1.50919002855938    2.19504731321168    0.63578589188423
H           1.92600478518239    1.46350784228561    0.14313861083218
H           0.19582213949730    2.16454555092909   -0.09051204372874
O          -1.76023805802938   -0.11111926000515    0.88515395181858
H          -2.47473700459870   -0.35360588747205    0.27063742520577
H          -1.03399071729883   -0.71493231342656    0.61640092508431
O          -2.72742769301448   -0.80030772297153   -1.54749958474238
H          -1.82080911962022   -0.61941190768863   -1.86625884809797
H          -2.92595577477437   -1.69812221419387   -1.81621605660996
O           1.61951067210586   -1.56432766568381    2.03298906796071
H           1.19056880511392   -1.59412815569042    1.15508017867162
H           1.38837627351274   -2.38293068836560    2.47523925648087
O           0.43115472680924    0.80515344128719    2.63722345468079
H          -0.46190089104063    0.55807982481768    2.37502305089649
H           0.96203875792871   -0.01240669621132    2.56702704369574
H           1.24331041088070    1.80328799154531    1.50194127972077
N          -0.73710183418042    1.86591077303251   -0.57498438031833
H          -1.26783477758358    1.26122867507632    0.10804639164175
H          -0.49364746644422    1.22343464560882   -1.36354203427380
H          -1.28979823673858    2.65496578278171   -0.89146657835668
