    26
        -50.45821490  Gyration_radius:  2.5332149379 Dipole_moment: 2.226
 S           0.64055150804458    0.70103684470238    0.65143687814873
O           0.95977029717171   -0.20275166815362   -0.46346821367939
O           0.63942098687613    2.08629058377983    0.22597782396642
O          -0.61809988387843    0.30584791343876    1.27607977009156
O           1.74286244255857    0.50156578363405    1.72688488886755
H           2.56002597913793    0.78448864715587    1.23588000106992
O          -0.64760097401686   -2.20871481769140    2.02498887738638
H          -1.31367815319588   -2.24341133045122    2.71406596752964
H          -0.55229185451043   -1.25664918747747    1.79182942964537
O          -1.06413032277187   -3.36444968188842   -0.29750417057114
H          -0.28973726956000   -3.90828747873050   -0.45334405774455
H          -0.95282006356534   -2.98585135036640    0.61355146580454
O          -1.44385624524531    2.65095431934717   -1.29813594150126
H          -1.77836218323850    3.49278727040261   -0.98385634102675
H          -0.62249644374567    2.48013743209095   -0.78350182609615
O          -2.54395758652732    0.36436141215717   -0.54166404521720
H          -2.01637578672748    0.36011482651884    0.28596583514953
H          -2.33259633513302    1.23659796482623   -0.95002197002996
O          -0.97299035550099   -1.21052666117666   -1.66406370496978
H          -1.74944431898243   -0.58245238843966   -1.28663585275924
H          -0.11340650066930   -0.78728563963024   -1.23948861778587
H          -1.07294565772195   -2.11682048576668   -1.19320995417800
N           3.37600728266775    1.38253313376592   -0.09714052004752
H           3.23245754005926    0.64184130228391   -0.77283676189959
H           4.28222737610783    1.80377635133881   -0.25941195101829
H           2.65146651236825    2.07486689432979   -0.26237700913329
