    26
        -50.45325144  Gyration_radius:  2.59649837641 Dipole_moment: 1.558
 S          -0.03558559667720   -0.86231916023316   -0.61391164731881
O          -1.35384742817637   -0.23977315495850   -1.12447916032627
O          -0.31078092137180   -2.02381793289105    0.16923910798730
O           0.81269478079766   -1.03925110969565   -1.75958199777906
O           0.56429443895644    0.20507880455928    0.31096628299003
O          -0.14747532865777    1.27446665833429   -3.08507509528867
H          -0.77355603884109    0.79249441813317   -2.52627734633357
H           0.39369613284216    0.59732046030455   -3.50208699414450
O          -1.75349336794049   -1.63752911368375    2.41954601801759
H          -1.20533429793921   -2.02307717896326    1.71352194498870
H          -1.14201357689818   -1.04827563407243    2.91938061471935
O           3.19624020393500    0.13947362883814   -2.07884457443029
H           2.38822684111930   -0.40952968385123   -2.06150217465144
H           3.88918633027954   -0.38172079506518   -1.67158181023517
O           1.50813261346327    1.98811129494282   -1.13483436949581
H           0.88582143047961    1.96999979466847   -1.90107776414053
H           0.96073843459375    1.00688724042158   -0.26700395828484
H           2.31692208878305    1.54124928879282   -1.46238482815522
O          -2.93998695158119   -0.05460096739138    0.79823011510092
H          -2.01684141079631   -0.13988568232369   -0.32790249956169
H          -3.77741611620691   -0.45563505175127    0.55527771974212
H          -2.53531628044769   -0.65417622097668    1.51503863702886
N           0.07522136495256    0.17260147756525    3.29274185569993
H           0.87012927462197   -0.08031143607521    3.86566085849913
H          -0.27194389312792    1.06599983946407    3.61783358024553
H           0.40228727383996    0.29622018591534    2.33910747516087
