    26
        -50.46400351  Gyration_radius:  2.43675126349 Dipole_moment: 6.295
 S           2.01766441671778    0.95541243857314   -0.31616400893818
O           1.80949688459322    0.87580723507350    1.11068924114506
O           1.38371089509387   -0.15324437501402   -1.03353991096977
O           1.68589859768433    2.24425436221805   -0.87883263232612
O           3.57372788856869    0.73607462639341   -0.56569754461011
H           3.93973638708893    1.49395644451429   -0.12272936346817
O           0.57262546860177   -2.28632909598108    0.29044244832526
H          -0.77567801614085   -1.94174172657936   -0.09178061437804
H           1.05738755839748   -1.60276772057970   -0.22437637581613
O          -0.82109629362080    0.12589005859852   -2.34378688312494
H           0.06705386702392    0.06810534831356   -1.89337442461682
H          -0.63980389013328    0.07978836652364   -3.28327784738688
O          -1.89049864281594    0.43858633314084    1.53407277247388
H          -1.41011656904295    1.08154395605312    0.94252170050426
H          -2.50624612584288    0.96421151951389    2.04594718877403
O          -0.85155840661389    2.02549689269378   -0.25719628074502
H          -1.10139960232075    1.62907841758141   -1.10200290709673
H           0.10307996771738    2.22597636890045   -0.35664322419414
O           0.41595745442541   -0.89463047586041    2.49820748682720
H          -0.44975442472702   -0.47169509089728    2.41024090953237
H           0.59632882693728   -1.94204979120276    1.22465458999415
H           1.03937144296070   -0.23160007739040    2.13480161743125
N          -1.75728121747744   -1.48422146689724   -0.37157848046083
H          -1.99720203573955   -0.82262910379542    0.39267222688186
H          -2.48264212700678   -2.17806837889083   -0.50788111898268
H          -1.57876230433539   -0.93520507500921   -1.23538856478498
