    26
        -50.46139537  Gyration_radius:  2.4780164895 Dipole_moment: 5.247
 S          -1.25526620660600   -0.59879869582490   -0.89728981301146
O          -0.32265092694045    0.45142005663283   -1.37300985470778
O          -0.73721260180679   -1.13740771458988    0.36342620085581
O          -2.59997573815529   -0.10845316218325   -0.79715665834996
O          -1.21723839694329   -1.73193107291901   -1.95512612730959
H          -0.42080750306150   -2.27107811212420   -1.71214182704499
O           0.39776520898959    1.93034817930806    0.54122871095204
H           0.05583679817026    1.45105497866672   -0.29571623240460
H           1.35106627503317    1.48841765013517    0.70960316293528
O           2.09824160758703   -0.41139575216960   -1.76544686627943
H           1.17493368467379   -0.05813329032462   -1.67542233145813
H           2.34496187837990   -0.27419417972382   -2.68130857134119
O          -3.42368468483619    1.35153477509813    1.24161341557219
H          -4.24531310809572    0.95947345522688    1.54185196024676
H          -3.19223691956933    0.88425142837875    0.40846270606380
O           0.93372406607213   -2.73966201527688   -0.90678298819307
H           1.58030624857582   -2.08021586191706   -1.21242548939506
H           0.48686663717772   -2.33873943220761   -0.13999831037058
O          -1.03529863257373    0.73531548442016    2.17676292772842
H          -0.22278643620176    1.53939504088993    1.32377904957296
H          -1.95744339695163    1.05174572383793    2.02007929988404
H          -0.96642983596948   -0.09914856351020    1.65744405461930
N           2.59198360244304    0.67032960178613    0.85713372104809
H           2.44368209826848   -0.05324706239989    1.54917678745990
H           3.44743359827341    1.16264207479837    1.07712156758818
H           2.68954266408499    0.22647646597838   -0.05585850466584
