    26
        -50.46400441  Gyration_radius:  2.43663331126 Dipole_moment: 6.306
 S          -0.68548371571353    2.03439866468245   -0.68703388621006
O           0.71146652485827    1.92019117888304   -1.03408918162590
O          -1.37900844774337    0.74528917584188   -0.74162274785192
O          -0.91893445506695    2.73990771146245    0.55223979009323
O          -1.37646179446494    2.89257071018051   -1.83512767099434
H          -0.94535250731585    3.73266312981079   -1.72145999476780
O          -0.25689473245279   -1.30231490100289   -1.96940990096505
H          -0.76284120128381   -0.50167211151678   -1.70402685748860
H          -0.19893223865729   -1.96603903171890   -0.68952028779863
O           0.32183339149469    0.92500405781831    1.98127031454305
H          -0.47764941099843    0.41319695600457    2.16082616023933
H           0.00304727376700    1.70372307161510    1.47810876860333
O          -1.98052251149850   -0.59187129132944    1.38132428078863
H          -1.80281910092183   -0.01757826220999    0.58540726098916
H          -2.92779087336098   -0.55852259802084    1.51989218173677
O           2.03839444521977   -0.84198353009128    1.12194857080912
H           1.45472033586818   -0.07809855202308    1.38616862681222
H           2.77431847836697   -0.83313583914741    1.73494707226841
O           2.11077526881039   -0.24048421625926   -1.64679690568888
H           1.70745413824012    0.64582101481160   -1.53705625954271
H           2.33250511033017   -0.50800178243035   -0.74394448428163
H           0.67973504727939   -0.97494485495055   -2.05400100374914
N          -0.12394077454875   -2.29608368985161    0.37673704906905
H          -0.17207000304329   -3.30325133394943    0.47410788049824
H          -0.90078509510453   -1.82083444068955    0.87657860135225
H           0.77523683790005   -1.91794923594258    0.73453266315250
