    26
        -50.45409693  Gyration_radius:  2.48279119836 Dipole_moment: 3.296
 S          -0.12509832148368   -1.13548737000048   -0.38221133955317
O           1.28436057883948   -0.98301156008397   -0.03472873109120
O          -0.93551705485924   -0.19486895780340    0.41923762548818
O          -0.37683826716284   -0.94546114922509   -1.79490121126836
O          -0.57476328038534   -2.56295298439304   -0.01235503040397
H          -0.46283187242145   -2.63867935984171    0.99298014703700
O           0.71935554547356    0.03757608909516    2.45834848665552
H          -0.00865179085660    0.04011588973992    1.80205029055775
H           1.44663748584754   -0.38308817243953    1.98360032630244
O           1.66271602120891    1.56004689161613    0.14661821243395
H           1.37592670144070    1.66378856136757    1.06227965396992
H           1.62223363125518    0.57753576400910   -0.02086459216050
O          -2.02178225768415    1.74742434606365   -0.83124790886952
H          -2.48596863147669    2.22828728473528   -0.14321880730346
H          -1.68014569601106    0.90976098976526   -0.40085857512114
O           0.57703011334804    0.81043546446715   -3.38705856669768
H           0.29941837602519    0.05051158176525   -2.79794883896232
H          -0.04398395471265    0.80702095826657   -4.11872287232577
O           0.22058442246170    2.57499153970867   -1.64145002748755
H           0.41215329477013    1.92785445570573   -2.44362351528614
H          -0.73675741424123    2.32695204545637   -1.33202947692984
H           0.85911839597149    2.23299077436347   -0.88610907387949
N          -0.28894408731290   -2.67528481755144    2.57878162814940
H           0.02374816848518   -1.74608956768747    2.86047941552812
H           0.40022426865313   -3.35313183608038    2.87609676762749
H          -1.16222437517122   -2.87723685101707    3.04685600359636
