    26
        -50.46206228  Gyration_radius:  2.4077578452 Dipole_moment: 2.099
 S          -0.19235019067154    0.05865733317488   -1.78694530384113
O          -1.55057030887884    0.40750433639661   -1.40785035008941
O           0.77400313814865    0.99154225067038   -1.21580657019420
O           0.14242092821705   -1.31849520117704   -1.49429235624048
O          -0.11122423723141    0.22232692197905   -3.35402984950480
H          -0.53345444153132    1.06467071716907   -3.48258457976570
O           1.49018876960748    0.11842505481004    1.17684047657323
H           1.80693656964991   -0.81637341975335    1.03125106393025
H           1.32654686804171    0.46489934604746    0.27148356681731
O          -1.84683150369795    1.79957852269032    0.81095276024476
H          -1.14331859414469    2.48183249487805    0.72092842603390
H          -1.87476033828844    1.35455364945254   -0.06663063431454
O           0.38182456190086    3.16381200628191    0.29441074954492
H           0.58735628979252    2.48043888052838   -0.37335049945056
H           1.07739055144135    3.10374392248302    0.95279611396406
O          -1.69165406261101   -1.79250964898377    0.30725214295691
H          -0.99024799896573   -1.74732844910738   -0.38284193568069
H          -2.44419428194947   -1.34547797932605   -0.09266793389862
O          -0.83301952727733   -0.11602958389048    2.03964534261395
H          -1.31181427186885    0.74763586293060    1.63466230540492
H          -1.19271133046709   -0.88206858801124    1.46777000763096
H           0.19772493759404   -0.01244110300868    1.76255598954162
N           1.99879481005367   -2.38161466953486    0.45053597564127
H           1.44726246564906   -2.22202878463218   -0.39120554359658
H           1.56489292280108   -3.13984982984209    0.96177000299441
H           2.92080830468694   -2.68540403222666    0.16535064268393
