    26
        -50.46975309  Gyration_radius:  2.44553291584 Dipole_moment: 3.779
 S           1.35341612895559   -0.45227287933181    1.25529690115139
O           1.79003002809165    0.76456597074496    1.89444180294319
O          -0.03186835336285   -0.80189575576153    1.58322156695552
O           1.56283609396789   -0.46912430794148   -0.17905018708225
O           2.23681618259221   -1.61451641589761    1.87702504802089
H           2.88033268514227   -1.10257302216313    2.35422503580430
O          -0.92998754989910   -3.02457445484049    0.42806874386864
H          -0.63227947526403   -2.24475255492533    0.93995616916995
H          -0.35980493246980   -3.74845267287583    0.69168130491149
O          -0.18709131992062   -1.67954843570013   -1.80708571529079
H           0.58166206007343   -1.31059453791955   -1.33107192889101
H          -0.59972008355968   -2.28653190742706   -1.16274568760575
O          -1.55624407151397    0.49886091759765   -2.02520598733121
H          -2.23858637933108    0.38821851475913   -2.68760937167097
H          -1.04644188116679   -0.36977738153266   -1.99930077032422
O           0.41960436597901    2.77697423225065    0.79128416113592
H          -0.82996256888624    1.92773770578123    0.70478204329154
H           1.01132412232122    2.19790185000060    1.31461906146745
O           0.99928452543904    1.78063192902680   -1.59651156081362
H           0.73752243239871    2.67653566921929   -0.13633169066814
H           1.37548046667162    0.97982628872115   -1.19041935715182
H           0.17105359092134    1.49672007183178   -2.00402414590937
N          -1.54303743076298    1.11059079201029    0.59981574314637
H          -1.68343900344653    0.91332521859431   -0.41696287394694
H          -2.42239546279856    1.30807947701086    1.06417917078181
H          -1.05850417014601    0.28464567874115    1.03772252403356
