    26
        -50.46975336  Gyration_radius:  2.44545311977 Dipole_moment: 3.765
 S          -0.08929420449894    1.55962081284634    1.08227394150626
O          -0.70106923855773    2.60686676879142    0.30213316124289
O          -1.01160048968164    0.46100298893088    1.38352708014510
O           1.14667740493207    1.05419067596945    0.51784721410371
O           0.26160288207892    2.20794066634301    2.48739258078786
H           0.11023774552867    3.12633012088317    2.29396115680150
O           1.79409726962617   -1.53630914659292    0.73415773467033
H           1.74306017245533   -0.56224292000028    0.68542709000042
H           1.24291010860574   -1.76719198871232    1.50661258634199
O           0.56039827822907   -2.07308905140372   -1.46975730168305
H           1.07975124467755   -1.91724888821128   -0.62050808815286
H           0.72810793098245   -2.98127475986109   -1.72214599905432
O           0.04089197520417   -1.52793514445680    2.80387330800942
H          -0.42105753036879   -0.79453712650866    2.34852767205484
H           0.36618449713307   -1.16491822577572    3.62904408037068
O          -1.20009408783411    1.60107699380338   -2.12354252307677
H          -1.10669629735345    2.14953823360094   -1.31744070816688
H          -1.57801572311510    0.26075078970125   -1.53145659688015
O           1.27106851058388    0.64093985572537   -2.16566053361798
H           1.40078859074504    0.88630341496023   -1.23253585497692
H           1.21053844220557   -0.32288166902982   -2.17140258826692
H          -0.27304006221479    1.39581427012402   -2.38809333484438
N          -1.65240393546508   -0.63628382626956   -0.91737899909966
H          -2.56074815379448   -1.07974727786587   -0.99613151540473
H          -1.47969459516529   -0.29505595960789    0.06359900567315
H          -0.88260074494410   -1.29165959738332   -1.18232256846787
