    26
        -50.46670421  Gyration_radius:  2.38932234856 Dipole_moment: 7.725
 S          -0.85114622144719    0.15336289930617   -1.33084360951234
O           0.37008854853781    0.88132274752121   -0.97139418921031
O          -0.81991403697593   -1.19714870446546   -0.75935614812832
O          -2.05319737015452    0.86788902278061   -1.03180111945069
O          -0.78206413476662   -0.05137082557931   -2.89231691674915
H           0.01766790793728   -0.56787021921982   -3.03082369966218
O           1.66792627726871    0.43405941866386    1.35467872211310
H           1.65540990283115   -0.94402331241949    0.85204414267282
H           1.31889169663612    0.84828493906005    0.54464331114745
O           1.91747579264703   -0.74811088193036   -2.25167075786833
H           2.56900318851188   -0.29254718792583   -2.78835105578281
H           1.43775615930617   -0.04964695918528   -1.74553986317848
O          -1.16683159014762    2.64410287247411    0.79917036448484
H          -1.61442888747144    2.07828312238564    0.14485878973569
H          -0.36364145931127    2.94072007927850    0.36641893117056
O          -2.38693004002613   -0.74269081285552    1.38580145362726
H          -3.00503001959747   -0.08219582800024    1.06181519788088
H          -1.89591873224329   -1.03112236626384    0.59884438947007
O          -0.53159231085636    0.77301957988343    2.68424840214680
H          -1.19594064468661    0.11228621103108    2.40851538703495
H           0.91555466586081    0.53701686208443    2.00985780475386
H          -0.80172269031579    1.58934838997450    2.22157931830656
N           1.47270058722255   -1.86089101980516    0.25727263673419
H           1.56005810134183   -2.71635970577304    0.79396008009103
H           2.07976701374062   -1.85315399889810   -0.56658375138718
H           0.48605829616417   -1.72256431213711   -0.11502784045707
