    26
        -50.45310614  Gyration_radius:  2.52586863454 Dipole_moment: 1.458
 S          -0.16885635129689    0.50358964515303   -1.49939980677704
O           0.77426290054863    1.50681192504608   -1.03304440716865
O           0.20226079221447   -0.83550045628499   -1.05411417130517
O          -1.54261819180242    0.81711305440614   -1.12347596761127
O          -0.14250688774931    0.50094143442209   -3.06003829617034
H           0.81562963145874    0.47337576361146   -3.25068752454835
O           0.70334126698304    1.34744166323192    1.65550916625558
H           1.19940508230916    0.49707212711346    1.72085631748098
H           0.70783106196207    1.55279058955174    0.70260719895774
O           2.47681706945034    0.80522867677729   -2.87836988526768
H           2.87514670149870    1.56849417155196   -3.30312139608344
H           2.07926212625536    1.12911163906797   -2.04305607670773
O          -1.30221731844931   -2.41124801452867    0.33875910698975
H          -0.65832839239113   -1.86857399629916   -0.19112815544947
H          -1.66820407753758   -3.05740840824057   -0.26808178709649
O          -1.64699584071046    0.97514669877165    2.59457746244280
H          -0.69571166530566    1.11464558087159    2.26601291383292
H          -2.02691152195509    1.85179244150424    2.67767716924151
O          -2.70214975751573   -0.32909867797817    0.74371512622600
H          -2.23336510264876   -1.23870033112832    0.70619863625092
H          -2.30789363933395    0.19160961087076    1.57795489358430
H          -2.29644127517765    0.17830838517017   -0.07935327440595
N           1.83725706725880   -1.08357813006943    1.33305151581366
H           1.44872682789012   -1.87715456789331    1.82703255526135
H           2.83450052253666   -1.22965142302799    1.24389783864410
H           1.43775896150851   -1.08255938166371    0.39602086761113
