    26
        -50.46327890  Gyration_radius:  2.36770422983 Dipole_moment: 4.810
 S           0.54675816809562    1.19671287142887   -0.63003967808405
O          -0.43371183954574    0.92799330480699    0.43177298309460
O           1.27875567137482   -0.03226349982458   -0.95014707855358
O          -0.10923443482082    1.73810135299968   -1.81214592843774
O           1.54056260659936    2.23366472231576   -0.09758404930359
H           1.74910388225926    1.88043746498835    0.84748469350985
O           1.92946915356628   -1.52456564129933    1.10315019118932
H           2.66907961637724   -2.07987535321067    0.85166664551561
H           1.72134811365509   -0.97780804668881    0.30717843081557
O          -0.54768885684333   -1.70803559904824   -1.81632271134971
H          -0.81384948737615   -1.92525937568133   -0.88941395692104
H           0.27423683206072   -1.18112739459972   -1.69083601870562
O          -0.88772329553140   -1.66032057782576    0.81326414858418
H          -0.05849852016142   -2.01991492012679    1.15301380389582
H          -0.72144703348938   -0.69368877288064    0.77710863967882
O          -2.97116743086764    0.45842006745157   -0.09572801327404
H          -3.06104664250750   -0.39304045553723    0.34337209754770
H          -2.10656867658205    0.81868702308133    0.20840131419089
O          -1.98860774323218    0.22670432932271   -2.43274077224056
H          -1.44537185146416   -0.68588562578952   -2.28687454751766
H          -2.56263072476129    0.33050564024083   -1.58849877061012
H          -1.23937919167540    0.94536714761447   -2.30459438813612
N           1.83812659000772    1.17060457048654    2.21937311267702
H           2.00616700029337    0.18043501854911    2.04923681036561
H           0.89744164196151    1.26695895613540    2.57980109314326
H           2.49587641261231    1.50719278311350    2.91010194892580
