    26
        -50.46496727  Gyration_radius:  2.47806775934 Dipole_moment: 6.803
 S          -0.74978262708785    0.24398433144789    2.03763425498447
O           0.68432049777233    0.28651066728000    1.69436532450001
O          -1.36639075183359    1.52887712208945    1.74760671493189
O          -1.40800718452997   -0.88907777729489    1.46224914400122
O          -0.80465726833300    0.09949114646150    3.61481058465876
H          -0.84407305270755    1.01250174611015    3.87793008809033
O           1.72528550259444   -1.75378635056282    0.35952527441426
H           2.31424871212937   -2.22902165218421    0.94663085331280
H           1.30552627674139   -1.04680027960467    0.90039565536846
O           1.79487469501689   -0.26408186895514   -1.96295049377907
H           1.94257935953975   -0.93780157177232   -1.27742091068704
H           1.45380725942236    0.93871664335059   -1.16935125181426
O          -1.66712292786937    1.62254726028709   -0.81969785054544
H          -1.66464190870677    1.54611102953539    0.16816514616508
H          -2.50365101271347    2.02468595465816   -1.05859617493313
O          -0.80496108890916   -2.56191590906491   -0.57988958137068
H          -1.21452107098390   -2.07944425669102    0.15799386004173
H           0.13699326048847   -2.57512468461612   -0.35993094508607
O          -0.76157127840207   -0.60037766373372   -2.38605451734220
H           0.87820448775502   -0.45165876490145   -2.30956654417282
H          -0.89067838214446   -1.41037958860782   -1.83920599496906
H          -1.20528047132166    0.10960978366895   -1.90286298669291
N           1.03245917409563    1.70036200139438   -0.49485739658309
H           0.94571017618850    1.23659467482649    0.45028222770554
H           0.07136915331375    1.91091753443767   -0.81009117114908
H           1.59996049048626    2.53856045244526   -0.44711329903672
