    26
        -50.45667411  Gyration_radius:  2.41284811786 Dipole_moment: 4.272
 S           1.36854579521397   -0.83257449755114    0.89225948778027
O           0.78753301408950    0.26029358825257    1.66063764241411
O           0.46948842498428   -1.96849077035137    0.80157317968544
O           1.85801362538401   -0.38506800013544   -0.39884842254822
O           2.62942588953310   -1.34184980442939    1.69587370085010
H           2.23188554052821   -2.00429810982239    2.24946372527259
O          -1.68095890495419    0.87746333014892    1.10071927271248
H          -1.99865398243252    1.45842685640796    1.79379209528464
H          -0.75606788087765    0.62674513071767    1.35181842510221
O          -0.90508252464643   -2.26882317939262   -1.48325723998246
H          -0.24984653530460   -2.39869190303519   -0.76904001377406
H          -1.73702608618520   -2.13743394850148   -0.98292170520132
O          -0.92447864681145    1.84738374016688   -1.30402243283568
H          -0.09282536775027    2.26108670390949   -0.92699596562875
H          -1.40475427534169    1.52016242257861   -0.51779592732376
O          -2.37623942909041   -1.76886209000093    0.69390251192083
H          -2.39825311334303   -0.80899468702253    0.82355799004742
H          -1.52002172973909   -2.04588895723263    1.04710840237523
O           0.17962545968404   -0.15196763296299   -2.27524607424361
H          -0.37124318672496    0.71703630568778   -1.94096735992576
H           0.95202815795253   -0.22501229033175   -1.61617529606742
H          -0.37089513870711   -1.01940300881847   -2.07944341734328
N           1.34099390705900    2.47665307611670   -0.09835104837147
H           2.11421621537514    2.19432848017652   -0.68859835567176
H           1.26471436542953    1.76479203541660    0.62782249363168
H           1.58987641667640    3.35298722000796    0.34313434184165
