    26
        -50.46327892  Gyration_radius:  2.36775201697 Dipole_moment: 4.814
 S           0.02052403496691    1.39119713573418   -0.43817998535313
O           0.62868187223728    0.63154169381273    0.66371129862400
O          -0.54948535674014    0.46550103739154   -1.42153757460632
O          -0.99210018401921    2.30859869436249    0.06539561940335
O           1.12972265712221    2.20209046243891   -1.11507908793512
H           1.89227567158602    1.51401176065572   -1.19911398914546
O          -0.11456205672314   -1.91683360764703    0.72138985741389
H           0.25575125951618   -2.31135705633778   -0.07831177872096
H           0.25745925966860   -1.00854474024467    0.72329483368791
O          -0.63815314448603    0.20390475350571    2.93289133939390
H          -0.58768066189606   -0.75673116643977    2.95557655345939
H          -0.01990244345219    0.48080573156127    2.21809846766553
O           0.88253522830526   -1.67093312271810   -1.92163968133132
H           0.32600913675759   -0.86784516308409   -1.77586391942553
H           0.62982721267504   -2.01040029046631   -2.78159585319872
O          -2.39945169695451   -0.86217655230097   -0.11443139690090
H          -1.88848317861499   -0.36399418952457   -0.79245194703269
H          -1.71759953622875   -1.45907863698764    0.28067987943133
O          -2.57417822581912    1.02615007003246    1.49876172458418
H          -2.00646738672998    1.69151353016899    0.92521844061373
H          -2.65445298327649    0.18252985218059    0.84195419610735
H          -1.92085973085515    0.72878571062649    2.23193729329575
N           2.87260854757484    0.31890643299821   -1.14991742445454
H           3.77587524758965    0.40070790067878   -1.59767833084464
H           2.38789147233228   -0.49843889517014   -1.51691142451844
H           3.00421498546319    0.18008866477446   -0.15619711020672
