    26
        -50.45326346  Gyration_radius:  2.47994408341 Dipole_moment: 3.059
 S           0.45892948665441    1.43467076193782    0.98535039152746
O           0.94269705829995    1.83497581794711   -0.31599453913440
O          -0.99666257945352    1.55415211499217    1.09035957333141
O           0.92676342647454    0.13710182626223    1.42496241130662
O           1.04882858535853    2.47682167394098    2.02079899846644
H           0.81558619405122    3.31129879129558    1.62733885441080
O           1.29918417903311   -1.67542003400743   -0.56888340646033
H           1.96778949842137   -1.30900625099456   -1.18265600717707
H           1.36348669973030   -1.08960402773829    0.20443145342790
O          -0.62938558694589   -0.04768677728018   -1.44908701049352
H          -0.00323287865539   -0.78351429014499   -1.26513096012947
H          -0.17832982251334    0.75028966069891   -1.13247774841736
O          -3.10996298492160   -0.56623833848203   -0.89668958085911
H          -3.62958818291548    0.17922868782482   -1.20303502205809
H          -2.17740392547499   -0.40233326594030   -1.21283131189977
O          -0.53676837307249   -2.03727356043577    1.77589466289742
H          -0.27493883352982   -2.49292492207562    0.96748573632022
H           0.10613428367826   -1.30224055209866    1.86768055053326
O          -2.45457641515153   -0.40584721965180    1.52724019121994
H          -1.77148671832892   -1.16928931031847    1.67464696811294
H          -1.86220973652367    0.45581796921803    1.43187743293585
H          -2.83987736539702   -0.53108084716532    0.56762206924970
N           2.81489450854896    0.15921229257357   -1.91091469052704
H           2.27390247564512    0.85628334077664   -1.40123906840797
H           2.65238910434884    0.31924253150557   -2.89772953087866
H           3.79383789263806    0.34336391735834   -1.72902041729650
