    26
        -50.45615799  Gyration_radius:  2.50517726675 Dipole_moment: 3.814
 S          -1.02789876900992    1.91719486883436   -0.21283363871859
O          -2.37341425986167    1.48508393297977   -0.51548492873617
O          -0.71444506624117    1.92747828072346    1.19601312703860
O          -0.01677453384973    1.18620787840222   -0.98326350429787
O          -0.91645696885816    3.41370789754271   -0.73074347761582
H          -1.75445981074560    3.74921773522208   -0.43412123052516
O           0.49072906939194   -0.28959256812026    2.00740990574632
H           1.31820747185652   -0.04915526549229    1.56108935571433
H          -0.06510994268886    0.50974235022981    1.89846757366065
O           0.05005929104325   -1.31536828552283   -1.47366126736951
H          -0.06498278660012   -0.31835378402673   -1.39897438508176
H           1.07267956766148   -1.46807458344400   -1.34090041086812
O           2.25885164691587    1.02985380267016    0.33054355540557
H           1.43490602658038    1.16991851279005   -0.19151638084492
H           2.42019255438048    1.85797989431390    0.78555413161315
O          -3.16202518832840   -0.76763245936393    0.56656919843442
H          -3.87166844790741   -1.06471420519013   -0.00534467457647
H          -2.89058414377411    0.11544268495882    0.22323934299534
O          -0.87889896231876   -2.05040473769867    0.67499757687036
H          -1.79743598948333   -1.67607802408909    0.70776164788876
H          -0.41471739282394   -1.72110787848526   -0.51509125804375
H          -0.34535356630702   -1.47327187763778    1.29581778777997
N           2.56120609971323   -1.55869500170766   -0.94940845993284
H           3.20852218329642   -1.66803943776236   -1.71873451158324
H           2.74459657137030   -2.28409863369186   -0.26790443065978
H           2.73427534685724   -0.65724111632144   -0.50948063431761
