    26
        -50.45520841  Gyration_radius:  2.55098482711 Dipole_moment: 5.901
 S          -0.15471726142218   -1.38507433319958   -0.83947507192317
O          -0.32196876196051    0.03973487164292   -1.46198053115887
O           0.48973367372050   -1.18000093891291    0.46187754110662
O          -1.43306053650327   -2.02967415203254   -0.73382895036807
O           0.77858395069135   -2.04934820307608   -1.76576503262208
H           1.65920408467115   -1.04230141952638   -2.06404653518284
O           2.91075662845357   -0.29967043295960    0.43546115745897
H           3.47568981851984   -1.01122673957266    0.74155557778231
H           1.97773372673816   -0.65303598972299    0.50365081090524
O          -1.18668291246949    2.59006999307405    1.62778686963204
H          -0.52887601204933    1.92627439222518    1.93606754431730
H          -1.83744963860401    2.65607702205772    2.32876175416713
O           0.53688836379312    0.68638851318165    2.37747877145677
H           1.45955299631900    0.90404855819696    2.22422497984220
H           0.34635993660676   -0.06480405602809    1.78325265997685
O          -3.17139749594265   -0.92108120491225    0.89608830554353
H          -4.02067781941410   -1.29816982871128    0.65956572787060
H          -2.50347094425467   -1.43488435863283    0.38845923283313
O          -2.26082063665927    1.22647980016529   -0.40772345427593
H          -1.14480168314215    0.52654533339739   -1.05153771012709
H          -2.71162383820522    0.51828006915382    0.10486990997102
H          -1.86777463023006    1.82871719586909    0.26613450826239
N           2.27508585829403   -0.08551062615454   -2.12572772331108
H           2.74274714163348   -0.02739205142759   -1.18602167773094
H           1.56250509216418    0.64125059496042   -2.19838531842891
H           2.92848090923755   -0.06169203905239   -2.90074333601780
