    26
        -50.45671241  Gyration_radius:  2.49558540448 Dipole_moment: 3.462
 S           0.35353879882812    1.35277104063649   -0.10053712344031
O           0.04670597774586    1.27236997607781    1.32273960096849
O           1.30207668660537    0.30191834238969   -0.47282150039865
O          -0.84839463708697    1.27977008219267   -0.92429340974278
O           1.01306081408734    2.72225154517326   -0.39792870759420
H           1.77555241847746    2.73239293239773    0.24059327813699
O           0.80596118279590   -2.00065947008507    0.69377932038865
H           1.05530325715092   -1.12925281555033    0.30008799627251
H           1.49379165599101   -2.22162007065931    1.32288923290934
O           0.23148592823072   -1.55078537845609   -2.12886136925680
H           0.57701198743571   -0.72668240839774   -1.73546526091010
H           0.50604889063499   -2.24510145313636   -1.52009208925551
O          -2.38683320153448   -1.68928081523340   -2.15414929700595
H          -1.39104850342517   -1.66324420180204   -2.18731762339986
H          -2.68777512025417   -1.29407360339385   -2.97446202812901
O          -1.41024182539694   -0.86604221674522    1.73415597756549
H          -0.74427616187260   -1.50568023689083    1.40825006106920
H          -0.91513497734471   -0.01276981209371    1.77732620157357
O          -2.77790969661179   -0.11075526110120   -0.21241091401744
H          -2.72555923008644   -0.81727166148696   -0.96470566652424
H          -2.33035985900354   -0.52066236873544    0.65564987329359
H          -2.06104793605950    0.58726211309810   -0.50530135402788
N           2.71400078171115    2.18435094843358    1.50786953447585
H           3.20715630926574    2.71446942237579    2.21442819932727
H           3.31398063549394    1.43846007144744    1.18134763952913
H           1.88290580421895    1.76786529955138    1.91922943819637
