    26
        -50.46100992  Gyration_radius:  2.41989720784 Dipole_moment: 3.546
 S           0.75109316991214    0.05630381173881    1.14414177422862
O           0.33588775671651    1.28072575034077    0.44457134094550
O          -0.38088613572213   -0.83556764380959    1.33335163042852
O           1.83691148767265   -0.60176680901206    0.42743998340417
O           1.29376098355960    0.47053772288498    2.53212545404968
H           0.50825188912130    0.95232923090017    2.91786158320889
O           0.46087065713814   -2.34283044507348   -1.01452384059978
H          -0.08892742809379   -2.81781758612869   -0.38767704076800
H           1.02603544176538   -1.76945630720893   -0.45385947133700
O          -2.49634365103494   -0.27228232856270   -0.08283770151804
H          -1.70698046744165   -0.43212808929516    0.49069037956701
H          -3.13488950159144   -0.94953251097244    0.14706592700732
O           2.66468297923158   -0.08500602622282   -2.01763818218964
H           2.56333783888609   -0.94874979105858   -2.42656547838361
H           2.56949716498047   -0.23675961047519   -1.05049257436262
O          -1.09198967175032   -0.60398999055412   -2.30763428226606
H          -1.74822726102786   -0.42111548755205   -1.59249910623516
H          -0.53576000208202   -1.34177113490630   -1.95953234371033
O           0.50328369653985    1.27959614692106   -2.04737861028372
H          -0.23126219092515    0.51300178201525   -2.26277119611770
H           0.42604904061092    1.39405733099495   -1.01672445642421
H           1.41334041784715    0.83468228748034   -2.17692030067064
N          -0.99958193403710    1.63913481161719    2.93300114063555
H          -1.31305973188262    2.44748533972338    3.45494169830420
H          -1.69169509206291    0.90665570802424    3.02230207914184
H          -0.93339945633150    1.88426382819240    1.94956162394382
