    26
        -50.45153949  Gyration_radius:  2.45830324268 Dipole_moment: 1.675
 S          -0.24997643469460    0.42935859801924    0.78296907974684
O           0.14574955707785   -0.46201667660621   -0.29767764639038
O           0.76817494772955    1.40137038678111    1.11062457925875
O          -1.54955617630798    1.05975534946266    0.48897733532818
O          -0.54131356859603   -0.46737536221891    2.02592384803625
H           0.32329035564551   -0.83049515218000    2.39412781561768
O           0.15708570168808    2.39333562250820   -1.31165638861522
H           0.54323011347968    2.05323315139380   -0.48505546218905
H          -0.59930282605094    2.91227176305517   -1.02439407970316
O           1.74866323158845   -1.27879149660060    2.88418200284396
H           2.02444310225498   -0.62641502799648    3.53182842235070
H           2.28508489784862   -1.09350502108050    2.06000753581921
O          -1.00433339174873    0.65121436012531   -3.00190660084851
H          -1.27928776859519    1.26249572381988   -3.68847561024115
H          -0.42286989821389    1.16012732203087   -2.39104236952283
O          -1.66482602345511   -2.29551755913183   -0.26844794063898
H          -0.83098933066217   -1.76170946425750   -0.31438209675711
H          -1.86035004911100   -2.38401877724084    0.66778870567516
O          -2.69115300593880   -0.19464412937533   -1.27662213843868
H          -2.26943663639644    0.40717382960208   -0.46136238659033
H          -2.07364019558224    0.05253633061120   -2.05398127864993
H          -2.43029065771284   -1.14052853165756   -0.98411485623054
N           2.87591534453061   -0.45749575383817    0.64126139234712
H           2.34944268820087   -0.92844444243427   -0.08669393656366
H           3.82034256108161   -0.31108428168648    0.30684109021264
H           2.42590344193424    0.44916924891918    0.75128096412958
