    26
        -50.46489350  Gyration_radius:  2.55400836474 Dipole_moment: 4.639
 S           0.07569281380224   -0.79941858103030    0.19414449907900
O          -0.04696928520523   -1.70640031282405   -0.92925418093006
O          -1.12663912175251    0.01754743148767    0.36048818763190
O           0.30170734522523   -1.62579788343300    1.46033060462681
O           1.25583949431187    0.07346087274309   -0.00107735474543
O          -1.09046339532957    1.71947578750669    2.37433457499031
H          -1.97839684615990    1.72112184363852    2.73578787185972
H          -1.12503537976646    1.15743022230142    1.56914329680340
O           2.94661288655515    0.64557716941156    1.98832861671097
H           2.37409616621671    0.52737358154985    1.20321472182713
H           3.58026070193919   -0.07364429100909    1.96825149969410
O          -2.05502366819931   -1.63852619483985   -2.63754712224561
H          -2.76633569015775   -2.20312154429254   -2.33213575582480
H          -1.31592703241110   -1.77055322247068   -2.00097514894825
O          -1.72861540792099    0.93761624726252   -2.02917330939960
H          -0.29675270576692    0.76383962148369   -2.40570699347914
H          -2.10248497097906    0.11323751747344   -2.40692924453143
H          -1.63857064234110    0.73470324317613   -1.06920835539656
O           0.71423693702550    0.00262080777769    3.33814007728265
H           0.07859239304427    0.72787120485521    3.14701124962827
H           0.44600677605773   -0.99355425325445    2.26942604250976
H           1.59199473713371    0.34529964954774    3.06638203396016
N           0.74972018904506    0.43155950388044   -2.48911545913119
H           1.08816935283118    0.35858853427527   -1.46682740629313
H           1.32407962672387    1.05252212225941   -3.05047928691202
H           0.74420473607467   -0.51882905747592   -2.85655364876786
