    26
        -50.45701725  Gyration_radius:  2.46332789293 Dipole_moment: 2.258
 S           0.84127937672298    1.53933898576520   -0.86062461287762
O           1.77920583579698    0.76806661053968   -0.06042110257719
O           0.66055522871038    1.03170411648250   -2.20131600281644
O          -0.42295985301272    1.72834966503298   -0.15800004822110
O           1.48042715615967    2.97861143860943   -1.02952312398946
H           1.27616761980406    3.13919109668494   -1.94378779312277
O          -0.56970576851803   -1.23418440144979    2.04183238872027
H          -0.10695796491948   -0.42109851586945    2.40564463629406
H           0.07512890017711   -1.63304196379341    1.42529602926585
O           0.07642099410519   -1.56244805941985   -2.25728270421899
H           0.54652368860724   -1.86659303996759   -1.46500407910914
H           0.32840524592710   -0.62160562025974   -2.36589494143548
O          -2.41740846743481   -1.35728186272782   -1.60319971591915
H          -1.47439087083198   -1.53313694339410   -1.89927863015653
H          -2.82942756637434   -0.86014450198389   -2.31161577993430
O           1.34365817989576   -1.77854633393993    0.19277403756187
H           1.55773350708653   -0.81588414490408    0.09357640923509
H           2.17556499735044   -2.22255561063592    0.36426892433180
O          -2.10461295899023   -0.01650337238697    0.52501318290161
H          -1.51671524832982   -0.61236945859115    1.21853007509308
H          -1.47029571521546    0.73369460303827    0.23972213917472
H          -2.29016268680089   -0.58688161635907   -0.31464408279026
N           0.64641749246916    1.05423438823990    2.53806388466725
H           1.16705356736307    1.07099556312134    1.66078582630087
H           1.28617290476739    1.28000895683260    3.28915109576317
H          -0.03807760450377    1.79808003134231    2.47593396786141
