    26
        -50.46256839  Gyration_radius:  2.41374493386 Dipole_moment: 3.853
 S          -0.10401200806536    1.25306302426607    0.20654311210855
O           0.39024137877018    0.35176212984167    1.25524138836766
O           0.73389581469727    1.14078245891445   -0.97896296258928
O          -1.50559553048896    0.98868536845508   -0.09035286287926
O          -0.02471492379798    2.69969531608530    0.75001048598368
H           0.95490947754971    2.82415423430111    0.88547722534291
O          -1.08127018412162   -2.23152034759104   -1.43341336550532
H          -1.08694923361497   -1.47523409197423   -2.08044507210853
H          -0.18232952111370   -2.19077693244582   -1.02221454365406
O           1.23356232788755   -1.60165897263246   -0.30729613193732
H           0.99027181696182   -0.88957297987910    0.32361724365275
H           1.67021946849855   -1.14177185524237   -1.02922904866878
O          -0.96146540871815    0.05650342118537   -2.71495874159495
H          -1.76118240340214    0.54415708221176   -2.50173315860282
H          -0.26128152877079    0.49072468906594   -2.18272430783357
O          -0.87265086415329   -1.67973101954264    2.33624346052771
H          -0.38791670573017   -0.85194449029498    2.11059907437223
H          -0.25054999078801   -2.39685478862485    2.18992820791553
O          -2.46836474110969   -1.29016521508043    0.37597684849075
H          -2.20935097317775   -0.30987433610385    0.22333318211273
H          -1.92550554222399   -1.80323636709261   -0.45220938377772
H          -1.97435714076740   -1.54401733673227    1.23008348389404
N           2.56368871310346    2.41194603103376    0.79079733645957
H           3.37903253455624    3.00269741718840    0.69094259040798
H           2.39577712272503    1.92104158025720   -0.08243968933576
H           2.74589805530078    1.72114598041605    1.50718562885687
