    26
        -50.46489350  Gyration_radius:  2.55414830859 Dipole_moment: 4.638
 S           0.13594397758897   -0.15569814300569   -0.79919935854862
O           1.07413588116263   -1.23050233505489   -1.05286296680147
O          -0.35689308550254    0.38288888692423   -2.14252229832266
O          -1.01043599241649   -0.61523197652858   -0.01475778271931
O           0.82516112507364    0.94535473799937   -0.08825343820886
O          -2.83885013841952    1.20647547493301    0.52551069047230
H          -3.68464708623622    0.75944705259275    0.46352042512488
H          -2.15400250379523    0.51056520260377    0.41553155761607
O           0.43844754983444    3.51218359959899   -0.72480908088536
H           1.07443662527002    3.67614967901631   -1.42327728387731
H           0.62547701990755    2.61119061742239   -0.39109236826888
O           0.87966062312046   -3.61765973001025    0.05116780905877
H           0.97496261239797   -2.77738889187940   -0.45255247075711
H           0.34527958773154   -4.19216582186286   -0.49871609536406
O          -1.81555426661533    2.37651998695381   -1.64624313158328
H          -1.13218809788524    3.00264509369875   -1.32573726503423
H          -0.98874565207725    1.18982410791682   -1.98528200370049
H          -2.31071583703096    2.09515582515441   -0.84486228792540
O          -0.02260189095435   -2.01422867197975    1.98200111252856
H           1.24679571864542   -1.24746084409145    1.83035350341027
H          -0.56712321888328   -1.49645488604943    1.34467846933763
H           0.21085756760784   -2.82560265700672    1.48284674581182
N           2.09874203817887   -0.66247451947657    1.45041382215312
H           2.70122961352451   -0.30709922981403    2.18612698073746
H           1.64305627596950    0.12302195790423    0.86701848277417
H           2.60757155379917   -1.24945452596155    0.79099821297594
