    26
        -50.46256833  Gyration_radius:  2.41368217337 Dipole_moment: 3.852
 S           0.93934566003143    0.73899842594805   -0.44189959709632
O           0.37641954881956    0.95133800975423    0.89767646474102
O           1.45123624626573   -0.61950130344379   -0.55479708650607
O          -0.04424634752950    1.03774586985955   -1.47425232254116
O           2.10532382532080    1.73893160573407   -0.62903205168627
H           2.75110504462341    1.44847856467365    0.07244748069765
O          -0.56755298878103   -1.48284183450541    1.28846046900512
H           0.13272002720912   -2.05274420233852    0.95956082579168
H          -0.19354559776766   -0.57696729501290    1.22748947828483
O          -2.28164761080010   -1.56862360675009   -0.73058726331784
H          -1.60044599982425   -1.75208075453781   -1.43279983061631
H          -1.77885163369361   -1.64171430290937    0.11843287972333
O          -0.21493387281128   -1.65760098442691   -2.34662164155135
H           0.48198161276613   -1.37880990992872   -1.71518452386505
H          -0.29753558642261   -0.91773148979152   -2.95366820558813
O          -2.11336230864251    1.51671781578117    1.50811762160417
H          -2.32692304434109    0.81437959183389    2.12763304095889
H          -1.13878903640604    1.46800764390368    1.37078023931472
O          -2.49904631124183    0.87938426178044   -0.93857761064118
H          -1.53693201313063    1.05610811198108   -1.24541210271469
H          -2.51887862046418   -0.23430652092032   -0.87327223715716
H          -2.51456562145992    1.21363395326065    0.02366154462022
N           3.34266882910920    0.46252814213949    1.27478297380702
H           2.93947665657027   -0.35053169770428    0.81859418755234
H           2.80773647960336    0.64717296105375    2.11348435761227
H           4.29924265300035    0.26002893457402    1.53498290956046
