    26
        -50.46489348  Gyration_radius:  2.55406266706 Dipole_moment: 4.633
 S          -0.67689355074575    0.09459963624725   -0.46452045719649
O          -0.50046525998186    0.94949394020171   -1.62116079193689
O           0.23747053560847   -1.04725150361841   -0.49426475881433
O          -0.46058379587253    0.88220504890421    0.77067382961276
O          -2.11818054678147   -0.41523817202308   -0.45524303117700
O           0.04188472214385   -2.73187493335837    1.52494971340112
H           0.16907410338624   -3.60645646337470    1.15358266818600
H           0.20547860660572   -2.09806829241050    0.79215775472069
O          -2.03662149536607    0.63626701838876    2.91483734698720
H          -1.38204145121487    0.77784625595930    2.20088975990034
H          -2.74935530231898    1.25623863836449    2.75138079612661
O           1.44934781876304    0.63818434956659   -3.36991692590465
H           0.65645922022022    0.77094201498192   -2.80186896250018
H           1.17401749080999    0.04060486697482   -4.06619867284250
O          -2.42410243308181   -1.71810031127408    1.67940213199929
H          -2.37876930537410   -0.98387831228336    2.32788690769894
H          -2.28196568457077   -0.98533742519505    0.39541061713777
H          -1.57201310228046   -2.20027194125246    1.76888367135805
O           2.61083697326554   -0.07422822675313   -1.07758389013175
H           2.15718989542720    1.23569775484306   -0.52917860065917
H           1.82817326038605   -0.60869603744909   -0.80821982197450
H           2.46504493745382    0.08496281040482   -2.03450942377950
N           1.56918931593506    2.10822522476676   -0.20465877576780
H           0.73063597661195    1.68193344037269    0.32466247911142
H           1.18541910394933    2.55010093472654   -1.03880325622753
H           2.10076994702545    2.76209966428616    0.36140969266984
