    26
        -50.45399902  Gyration_radius:  2.57193861913 Dipole_moment: 2.553
 S          -0.94394417345081    0.40404484604344    0.10237455111161
O          -1.17298388103838   -0.82445388364683    0.85048801473927
O           0.47255974244675    0.78489693011473    0.13261546874441
O          -1.41863796449118    0.27557556879196   -1.27979257202975
O          -1.74928186878486    1.54706071563796    0.73626906518544
H          -1.21543658927946    1.76183900920928    1.60263091404016
O           0.98208890149967   -1.95606988850689   -0.14506664921741
H           0.13061588788792   -1.69837863561314    0.26844379706790
H           1.54778768026856   -1.19032786611070   -0.00710941660990
O           1.87043904973980    1.29892079407707   -1.96338993745596
H           1.87980632434844    2.25080172502598   -2.07699920819160
H           1.39423362199568    1.12467749613494   -1.10333780519310
O           0.57439424993773   -2.42756843656682   -2.68245958969336
H          -0.21667702231924   -2.96944621219643   -2.71054437267327
H           0.80793488553050   -2.33114053884748   -1.71776543641144
O          -0.86105972401848   -0.80514419996908    3.50164660887821
H          -1.62416141813105   -1.25041009173054    3.87297761688664
H          -0.95328078782873   -0.88927404284994    2.52974588906007
O           0.08191477315629   -0.00369929445067   -3.20479016431389
H           0.31644605234641   -1.00923675527295   -3.10971787925529
H          -0.63498768296082    0.15198406981762   -2.41940869085804
H           0.89341310871977    0.51987892452887   -2.86234768784598
N          -0.23248483486208    1.85083227097276    2.75327579314577
H          -0.16981287117351    2.64731668136888    3.37279675685202
H           0.64376483121339    1.73171711327201    2.25997734187267
H          -0.40265030074820    1.00560371078622    3.29948761217215
