    26
        -50.46293006  Gyration_radius:  2.50923991704 Dipole_moment: 3.642
 S           1.89639881079215    0.78121136906182    0.03584395714498
O           1.43279060617186    0.84914852819891    1.42341707194370
O           2.43394433850792   -0.51571347473242   -0.30427114967606
O           0.90359570778290    1.29170856813257   -0.88659053090258
O           3.11631731026249    1.79842720687258   -0.05203476707626
H           3.84746230314294    1.27972113100388    0.26724306677757
O          -0.48144864073162   -1.06862468614651    1.64561820088048
H          -0.16783595571760   -1.76058094117439    1.04521049565021
H           0.25619255707767   -0.43827044025099    1.71256997088657
O           0.83562968593794   -2.57404352662282   -0.28569449947976
H           1.44429149406528   -1.79728764124378   -0.35111407805331
H           1.39949993410560   -3.34940665226040   -0.28413280314255
O          -1.27189712665653   -2.33003031010198   -2.00626904747838
H          -0.47536207028734   -2.44623206578400   -1.45526453551293
H          -1.98351160867501   -2.78762047809958   -1.55518824891232
O          -2.38974221156687    0.58441188197455    0.77392768392091
H          -1.47757798067455    1.70274690372670    0.94375839345731
H          -1.85720318512550   -0.13558420891685    1.18272860486509
O          -1.57136475175119    0.36011196064600   -1.70957861091093
H          -0.65745415237115    0.66810689295902   -1.61141236087030
H          -1.50634460150589   -0.57870940321952   -1.97169231769233
H          -2.27085695437662    0.46180676048995   -0.20540335166133
N          -0.59996846426506    2.39288423874777    0.93794437311567
H           0.16441977792581    1.92182223907835    1.47491020080120
H          -0.80618276969086    3.33165923709232    1.25866114895478
H          -0.21379203237665    2.35833690055909   -0.02318685702485
