    26
        -50.46293009  Gyration_radius:  2.5092784204 Dipole_moment: 3.639
 S           1.63632328300149    1.02249171282316    0.69625970791193
O           1.43351876050572    0.45058799753545    2.00718872706946
O           2.17571979179505    0.05328941856111   -0.26027423578079
O           0.49475237380649    1.73054991078114    0.15573069097627
O           2.77261666892027    2.12241324981069    0.86828659215919
H           3.35212803414225    1.72927257346060    1.51264035367314
O          -0.33557431260172   -1.44300933317056    2.28153329911770
H           0.29976832758757   -0.68869624559035    2.20759552990095
H          -0.15505786277717   -1.85547575700253    3.12794835835627
O           0.34807935693180   -1.95723618035904   -0.36425191351448
H           1.11427750612755   -1.35960701496652   -0.32327850121277
H          -0.00091672903717   -1.98189220957917    0.53866134425886
O          -1.08759635033288   -0.69816812749362   -2.23159577845387
H           0.01348567657595    0.22798342732903   -2.43287231781085
H          -0.66146816330368   -1.34226722377313   -1.62108006944462
O          -2.85970777339097   -0.69123258084702    1.55715729016663
H          -1.97383706752116   -0.92790231981113    1.89005308111992
H          -3.23788587747255   -1.49483034623720    1.19594627699886
O          -2.09235921021772    0.96237878957585   -0.46531333490856
H          -1.64249615250080   -0.12056524140144   -1.64268402521114
H          -2.48726228932093    0.47748024815244    0.28521497231028
H          -1.27442055418495    1.35348496206572   -0.12214196179358
N           0.85391069828604    0.95254651259568   -2.30822859561707
H           1.60082175324980    0.46447742508882   -1.76132108381838
H           0.52998427593943    1.65239277568385   -1.61634059067771
H           1.18319582582445    1.36153357678584   -3.17483379580723
