    26
        -50.46407702  Gyration_radius:  2.36411011049 Dipole_moment: 3.024
 S           0.14099755184796   -0.55883060844607    1.27596409242332
O           0.51695585861518    0.82948632487200    1.00225242277603
O          -0.84187490061062   -1.01986197808907    0.28282919788574
O           1.29908662350334   -1.43022663922869    1.28533462188107
O          -0.54281569719550   -0.61108887625361    2.65950141127695
H          -1.27390524787000    0.06890904792057    2.55179339317660
O           0.68973030439421   -2.37656359065893   -1.30224036578057
H           1.29216167693304   -2.77332347350940   -0.66424684601201
H          -0.00643160191270   -1.95534541695380   -0.73697777012559
O           0.11655275588458    1.46148696466659   -1.48929811434571
H          -0.82661997033244    1.22670798489327   -1.60689156798167
H           0.27128496661249    1.35142860899239   -0.51736263691930
O          -2.38217057276416    0.47468355256060   -1.19908771689902
H          -1.88279280035701   -0.12592256424055   -0.59683684143637
H          -2.81349906641006   -0.09235985710029   -1.84033148882420
O           3.04440510099318    0.07055918611145    0.06929895144061
H           2.52630816355503   -0.58001177298248    0.60654113676431
H           2.75591996934871    0.92530175877545    0.40689860695312
O           1.80975061856100   -0.25720130379670   -2.11441384780284
H           2.44738345912292   -0.10489504217473   -1.30753212631359
H           1.35831005655009   -1.16935322767041   -1.90976824194472
H           1.06157692893349    0.49131132178854   -1.98185829030095
N          -2.12918340847682    1.32185216618022    1.92714526498577
H          -2.63054560764875    1.98830852092888    2.50047965078044
H          -2.71075087708055    1.08110275548875    1.13319422234214
H          -1.28983428420323    1.76384615792405    1.56561289199246
