    26
        -50.46220842  Gyration_radius:  2.42240837301 Dipole_moment: 2.960
 S           1.01139966727500    0.09180624513111   -0.73856661832239
O          -0.08544158217475    1.06896808025599   -0.79913243978629
O           1.49881680645413   -0.03317515293108    0.62801817172520
O           0.58614460183976   -1.19123035995153   -1.28178603051962
O           2.15537909532645    0.61255266185546   -1.63680021554384
H           2.48163403735160    1.41616457175474   -1.13821312927861
O          -0.42364566610382    1.18179878702549    1.97621907611828
H           0.34952534724642    0.70389279272807    1.60472733836810
H          -0.66670674228504    1.80624043393559    1.28587828855753
O          -0.14123052108207   -2.39886342479826    0.95888019384168
H           0.55804756636901   -2.18999745873182    1.58336211137606
H           0.18544424233261   -2.04955770267180    0.10353033989609
O          -1.75401455579521   -2.03629689907849   -2.12212522500363
H          -1.87187218074988   -2.85241954543718   -1.62936184463988
H          -0.80757077394229   -1.79254749708516   -2.01739585950702
O          -2.14612555806544   -0.75984765968066    1.50377923906699
H          -1.49872985031436   -1.49938888107907    1.38333962011804
H          -1.61209084965823   -0.02040502060499    1.89136598450352
O          -2.38724960586080    0.07078625180106   -0.81417352879178
H          -2.29099518719962   -0.75299762247039   -1.40644425433353
H          -2.39430569493068   -0.29958176732323    0.22435130868375
H          -1.47512802995927    0.55632420704105   -0.88497018349632
N           2.69344489799444    2.48641773252724    0.09197419644708
H           2.44944799952142    1.77764088346723    0.77762057849597
H           1.99525898761678    3.21747391876030    0.12186227806994
H           3.59056353881747    2.88624242552599    0.33406058396643
