    26
        -50.46407700  Gyration_radius:  2.36410873222 Dipole_moment: 3.021
 S           0.15733795175312   -0.43281742534924   -1.32244265388985
O          -0.53039816152970    0.81979251507106   -1.00348424005787
O           1.06511278065997   -0.80286182128714   -0.22520895338058
O          -0.78399089288064   -1.50322635375355   -1.58441925606483
O           1.02409256877219   -0.20235916890709   -2.57948592992096
H           1.57756415213171    0.58882337154424   -2.30371518571499
O           2.04052147085230    0.78703351005487    1.59759981575344
H           1.76540588637465    0.17188919921755    0.87739451337129
H           2.48355160582890    0.24580816064240    2.25297749885644
O          -0.36149170702936   -2.59149182550848    0.98497515113819
H          -0.77383829858836   -3.02494652292193    0.23033646515926
H           0.30517157788487   -1.98589822277846    0.57218118089491
O          -2.95341720662858   -0.50562492171031   -0.54734289515875
H          -2.24264948192227   -0.98271591052443   -1.04474448251563
H          -2.80234669732493    0.42008664764433   -0.76642112087368
O          -0.62244536942956    1.24132168272236    1.56188748095711
H           0.32284915608354    1.17957849354728    1.80933677392846
H          -0.61326836687522    1.21026862614290    0.57208928636046
O          -1.99646348648741   -0.82715541020426    1.77248102014419
H          -1.34287623500105   -1.60811863210433    1.57131413984146
H          -1.40721035117234    0.06074759272152    1.81987274482733
H          -2.53220251365047   -0.71274577710439    0.88896950166637
N           2.06125308015734    1.90636354595148   -1.45366247059629
H           1.10679307386211    2.13745602212831   -1.19645176437994
H           2.49020598085797    2.71509326256922   -1.88513921432176
H           2.56273948330270    1.69569937218155   -0.59889739601956
