    26
        -50.46220848  Gyration_radius:  2.42270518135 Dipole_moment: 2.970
 S          -0.62302832513515    0.82373890647311   -0.71248053530724
O          -0.35292532789874    1.07861751926538    0.71003900294198
O           0.61592820124104    0.51189516374360   -1.41168013805837
O          -1.61275438487226   -0.23417403782139   -0.86530156870289
O          -1.23140531475527    2.11032549359458   -1.31361386333990
H          -0.46140613791556    2.74908312839418   -1.29885659642311
O           2.25796279531372    0.07765724349501    0.61418015152814
H           1.83922874221900    0.68617216107857    1.23062010463290
H           1.75983388056761    0.20449604563725   -0.22246893531320
O           0.00461291729363   -2.30843686289362   -1.16495246140713
H           0.68272225351723   -1.99972020692604   -1.77107227106440
H          -0.65246729668073   -1.58171361205078   -1.14576155474370
O          -2.77328218710068   -1.79981839043546    0.89509979814692
H          -2.61763873274641   -2.67529621393449    0.53177776466493
H          -2.55872520077970   -1.16691657126381    0.17434803543369
O           1.05352372092003   -2.17828213874544    1.26091087895797
H           0.68910311343986   -2.40678683704943    0.36894073559957
H           1.70135660844305   -1.44855179229932    1.08700500787251
O          -0.80266267483822   -0.86355008913920    2.23362296947224
H          -0.66282821084162    0.00365033195571    1.68508739956466
H          -1.65297169455117   -1.27807794875593    1.85440085051537
H           0.02654258240716   -1.50891158003752    1.89818923925274
N           1.08173256842839    3.30196780947390   -1.17960069897906
H           1.47727400841698    3.98480229652664   -1.81242481192851
H           1.44939871734411    2.38325372117622   -1.40958697098358
H           1.36287538854364    3.53457646051070   -0.23642154232366
