    26
        -50.45439732  Gyration_radius:  2.51496077353 Dipole_moment: 3.292
 S           1.47480081316343    0.46752389960597    0.50578672389284
O           1.45524887440122   -0.27465026126953   -0.73904481910358
O           0.07118497538925    0.67547897597132    0.98024056330134
O           2.26259650143683   -0.16948431511697    1.53682273952152
O           2.04157494088753    1.87701079848126    0.25380311381542
H           1.37805986962452    2.29390856432580   -0.39936750537015
O           1.40907981217477   -2.49573424786996    2.21475087080286
H           1.86017743781793   -1.67116590887315    1.87939468936581
H           1.79725103973168   -2.67307133037024    3.07444547084476
O           0.03658142356970    0.24548455840544   -2.83564535703097
H           0.63580331381147    0.02099833126206   -2.07585634649570
H           0.18561129455934   -0.43532781390317   -3.49306088007468
O          -1.83409807458596    0.31036786344174   -0.85296211335137
H          -1.33975240434628    0.24017820846650   -1.68988594720409
H          -1.15718786283941    0.55380177094957   -0.18695679161306
O          -2.34807954515450   -1.97998615127920    0.25789973168439
H          -3.27978524968548   -1.99002300041155    0.48422127592265
H          -2.19882378847238   -1.14410264384135   -0.27717576780692
O          -0.81701920490788   -1.29755019536169    2.16482535108960
H           0.01883924446368   -1.90000576135745    2.22731735421559
H          -0.43756995006082   -0.39096330108734    1.72928721929457
H          -1.44104434391416   -1.67751660885844    1.43237911180800
N           0.25502824828936    2.79145692382028   -1.38325062770359
H           0.18440798804204    2.11350781746017   -2.13675012331547
H           0.41482549086201    3.70653402609650   -1.78340078495448
H          -0.62771083426370    2.80332979132128   -0.88781717152218
