    26
        -50.46385738  Gyration_radius:  2.40996645479 Dipole_moment: 6.532
 S           0.72495534909504    0.64917009591137    1.30024406314035
O           0.94947928039573   -0.57556817406012    0.52370376914667
O          -0.15621943851984    1.57611294217574    0.40762762702051
O           0.05539233557253    0.38511506205003    2.54487483134936
O           1.97735366235499    1.40821632480791    1.42189716615205
H           2.12866710403157    1.88657223219168    0.13751871793222
O          -0.67557596352835   -2.70132987508565    0.18395133342564
H          -1.33708713420125   -2.53303090393733    0.86641954647149
H           0.03869591757521   -2.07171887628609    0.38646670526121
O          -1.32534807809739   -1.16908044652689   -1.93034695379735
H          -1.13649798268368   -1.88783305135912   -1.28605347842827
H          -0.46855421766107   -0.79828988693902   -2.17055451114525
O           1.47565231798302   -0.19564692157544   -1.93262449643626
H           2.08527121928756   -0.88401478712543   -2.20540456212722
H           1.24455340320099   -0.40121165358544   -0.97584617008676
O          -2.01779050025417   -1.16592898305057    2.14083359498751
H          -2.57574295165004   -1.11684251521896    2.91868627788280
H          -1.20834847120246   -0.64149032915797    2.35469687553603
O          -2.32266074841819    0.40891416116807   -0.05548573589182
H          -1.08376162037262    1.13800588894761    0.23511527972126
H          -2.08259586450862   -0.14666986110482   -0.84131390634137
H          -2.40443016210409   -0.21089357461174    0.69531366156851
N           2.07276584750077    2.21257546896951   -0.95127519851601
H           2.88339683638244    2.74618466088093   -1.24814473610101
H           1.21573103673435    2.75932273428833   -1.01263105464620
H           1.94269881312052    1.32936026827625   -1.50766864604400
