    26
        -50.46385744  Gyration_radius:  2.41000049228 Dipole_moment: 6.528
 S           1.35659574937296   -0.21048490726564    0.86819680839781
O           0.35897717669610   -1.13220607380570    0.31273295570396
O           1.16120465362356    1.14497826473047    0.12176132530234
O           1.18849757456997   -0.02039182019230    2.28344047536985
O           2.70701345491823   -0.61791688035272    0.45617326839081
H           2.69304272834884   -0.28254143330029   -0.88107152739900
O          -1.32524701363392    0.47390080620042    2.83507609912189
H          -0.38173731878214    0.22083341813924    2.68776984372085
H          -1.36444780650004    0.83725743250157    3.72119383102529
O           0.09850902483769   -1.02366028128004   -2.21236292303673
H          -0.10985104287533   -1.90858946364961   -2.51801626243319
H           0.14276039756279   -1.08604287494631   -1.20980968109941
O          -2.31172309745335    0.35570686106606   -1.17417432662953
H          -1.60549998532755    0.00660257224667   -1.72981092110561
H          -2.48105682294350   -0.33109171753219   -0.49076592687486
O          -2.26392969372164   -1.35880172490710    0.89886408509251
H          -1.30848438483239   -1.47086330751718    0.74989725974159
H          -2.31541343020579   -0.82808424054258    1.70346311524588
O          -1.15826143575245    1.97421715826318    0.57227618546878
H           0.22082835759107    1.53934056836328    0.32691387897665
H          -1.67630816212102    1.49725147718051   -0.12622632231849
H          -1.38758501093656    1.54188850907353    1.41778888456252
N           2.51200077757333    0.08239664208126   -1.94371835677547
H           1.61372792493357   -0.36959389188741   -2.25224373674367
H           3.28563318625375   -0.11751616146065   -2.56937579584079
H           2.35075419884960    1.08341106879194   -1.84797225589766
