    26
        -50.45793233  Gyration_radius:  2.45999262666 Dipole_moment: 5.063
 S           0.53672252780983    0.23673183952426    0.83202431511029
O           1.92342721651884   -0.04602368682108    1.09654461269280
O           0.33605036018415    0.65773526672215   -0.57530672443737
O          -0.38313407581882   -0.82658011184776    1.18341723830313
O           0.08298264313990    1.47616514461814    1.68360172998887
H           0.80852885866554    2.14750111591661    1.51200044510378
O           1.54950102207178   -2.67102874550905    0.44882256516663
H           1.98121206907947   -1.84370989044054    0.71567523777144
H           0.70012190076736   -2.64578218958600    0.90346227523544
O           0.62860238765239   -1.70972892206102   -1.88639289862274
H           1.02103070328132   -2.25903231546191   -1.17401254445128
H           0.69979197914107   -0.79806071472407   -1.55782246966794
O          -1.95054769274679   -1.78424920766231   -2.06044490351412
H          -2.15585004623449   -1.88483254128172   -2.99194686715115
H          -0.95140007980700   -1.88379219166393   -1.98185015943262
O          -2.64112562343139    0.43047365741011    1.31778014220284
H          -1.87315792480812   -0.18453070588958    1.42106695153543
H          -2.37693637010874    1.23116612735016    1.77927346240695
O          -2.07414057781512    0.55829986302080   -1.15061010293655
H          -2.13022630032578   -0.41670581706586   -1.53725013885455
H          -2.47511593064832    0.53156913509783   -0.20131176641370
H          -1.03922933178303    0.67937579371496   -0.96458502380806
N           2.20873091383228    2.75400087794140    0.91729697664913
H           2.85047966008943    3.36062733357350    1.41150139814189
H           2.12965603375830    3.07810451254677   -0.03790838673400
H           2.59402566755916    1.81230637257465    0.89697466573281
