    26
        -50.46460249  Gyration_radius:  2.41097941114 Dipole_moment: 2.672
 S           0.01881319501439    1.34637281137311    0.37212069283558
O           0.87447733208394    0.25774858120936    0.86161761752374
O           0.34754579408322    1.63983473518572   -1.02900015872449
O          -1.38539243427982    1.03153175565796    0.54388599100469
O           0.32986887058976    2.60602022578144    1.21225787115772
H           1.30152293586096    2.74648933179978    1.02527834124507
O          -1.40901550207469   -2.67996238572711    0.35456960853327
H          -1.27359826407975   -2.10499990721780    1.16000637787353
H          -1.72114774695447   -3.52747768804454    0.67337698803778
O           0.90087153396183   -1.79490904981541   -0.80106965741478
H           0.17057245376438   -2.32637881821739   -0.43086481763054
H           1.04857842077009   -1.07511414528030   -0.14441105449286
O          -0.28458194520506   -0.31324095776987   -2.44216326291053
H          -0.00969302585316    0.58179045102844   -1.98083504782149
H           0.28604574102527   -1.01651935509343   -1.91008132596104
O          -0.97197299790313   -0.99131593216374    2.30779947384654
H          -0.13090222580948   -0.62294482625307    1.97221115708440
H          -1.60182903499176   -0.28453206203599    2.11663553779872
O          -2.42610224269127   -0.66352307670665   -1.19330751214363
H          -2.23555142319755    0.05223969745027   -0.54529120168426
H          -1.26406370788727   -0.47504747386264   -2.08252348061688
H          -2.25453092974160   -1.49459498948063   -0.71137552071111
N           2.75719887071516    2.41072885805043    0.32415069574271
H           2.91254214794825    1.47331291962742    0.67508165071050
H           3.64113646624181    2.90204253845365    0.28482138990139
H           2.37920770861073    2.32244876205790   -0.61289036318985
