    26
        -50.46489358  Gyration_radius:  2.55391256538 Dipole_moment: 4.638
 S          -0.46350508904465   -0.65353868982373    0.20013696595386
O          -0.69817421458526   -1.58062224846295   -0.88851337550827
O           0.98565253700954   -0.59833881728874    0.49950550320051
O          -0.95841439871821    0.68625958321120   -0.11727858195257
O          -1.18468215722211   -1.17497679290324    1.44324304093009
O           1.92116385840033   -0.58950325129269    3.00327922962288
H           1.68468553619297   -0.55479442135576    2.05404748701737
H           1.99138080917245   -1.51895094556336    3.22781459597146
O          -1.60140917671987   -0.84452069486472   -3.25431368273497
H          -2.55915329341852   -0.86909363889595   -3.26323523073297
H          -1.33234992956219   -1.20181809712296   -2.37746074222151
O          -0.62468690933833    2.50574295121527    1.76180998440830
H          -1.40999619999648    3.05519560913733    1.74109664242168
H          -0.70561945832635    1.88595367596480    1.00368760719299
O          -0.09404126221508    1.23651602406041   -2.53993045480679
H          -0.46104628033429    1.23221003700077   -1.62552975775950
H           1.00973292265791    0.25980531561404   -2.31706367351434
H          -0.71827248171206    0.67192569832008   -3.04356159645550
O          -0.56997402440548    0.35683835986829    3.34687833113674
H          -0.56935997871643    1.24521205749346    2.92572136636100
H          -0.98474646753815   -0.55437386341891    2.24945468083490
H           0.37486482829540    0.11555465484520    3.45071032913232
N           1.63618180875384   -0.58098767758245   -1.98072486549430
H           1.21435173656432   -1.44018497603339   -2.33009004008506
H           1.50933065889699   -0.59557875924346   -0.90896505955515
H           2.60808661590701   -0.49393109287587   -2.26071871336005
