    26
        -50.46220835  Gyration_radius:  2.42223170807 Dipole_moment: 2.962
 S           0.77932555466665    0.97133218886670    0.16702254704301
O           1.33775051530166    0.16324104018646   -0.90822459679200
O          -0.66435462905024    1.16001439101503   -0.03704419797944
O           1.04044354254277    0.38754160249796    1.47580571709241
O           1.44342304192352    2.36605114814477    0.14727515951255
H           1.33944091757119    2.64876224512081   -0.80667577666205
O           1.15847332340719   -2.16957578664539    0.80060483877806
H           1.21249070512465   -1.24135745121097    1.11018918126035
H           1.68734057839191   -2.18370416226463   -0.00103384305149
O          -1.36766374204107   -2.35930636423849    0.03496076055338
H          -0.44131862938165   -2.46379420993104    0.36880816555084
H          -1.26542191174506   -1.95461135587117   -0.86402605784732
O          -0.85593162278932   -0.79684371072486   -2.02786832451503
H           0.03050125776248   -0.52015935549525   -1.70857596145263
H          -1.42249544258491   -0.04584517477274   -1.82642743914136
O          -0.58075479966307   -0.51431291942936    3.33504208208895
H          -0.23693792943249   -1.39538445488195    3.50307067423723
H           0.11181001181858   -0.04943461764799    2.81518470161479
O          -2.12914065346300   -0.37540223820206    1.30176415024246
H          -1.59912842214733    0.34019960044252    0.77301555386153
H          -1.88788818099458   -1.31027977518257    0.76889073394036
H          -1.65786572851341   -0.43586378409718    2.20350040866460
N           1.04209395169805    2.54817558618977   -2.42099162556281
H           1.62098562458845    2.99156897467796   -3.12212341557139
H           0.07138788112340    2.68850113281157   -2.66770709174366
H           1.23343480589177    1.55048748063805   -2.41443635411929
