    26
        -50.46009915  Gyration_radius:  2.46658696822 Dipole_moment: 0.826
 S           1.20688015513739   -0.09529586528022    0.54851677233473
O           1.57862406149038   -0.88028818499713   -0.61797707967961
O           0.68252098134315    1.21186515440847    0.16735137001418
O           0.24564288115882   -0.80962710397199    1.38939012202660
O           2.46855766101111    0.12372967271525    1.42813645152981
H           3.05274542570891    0.61187074285836    0.79326596789437
O          -1.85694341081690    0.34943411787556    2.46284045725432
H          -1.01952938119549   -0.07495923885941    2.16073842120301
H          -1.62652633927508    0.87267471317885    3.23141557788916
O          -1.88106740082758    1.51125751587242    0.05811242799252
H          -0.88582575091940    1.52566542723927    0.03467886141450
H          -2.08750984766573    1.21435627464245    0.97296897003637
O          -0.13085990490186   -0.84977942689431   -2.53386748578350
H          -0.03890551950390   -1.71854822630379   -2.93075751378301
H           0.55639524513804   -0.81091702175393   -1.80990111357406
O          -1.86901204550220   -2.13798226149754    0.61717011619199
H          -0.97722929347997   -1.80026618957433    0.87378319473883
H          -2.43406531805618   -1.94029324226979    1.36991459000999
O          -2.32196733872580   -0.51179144231565   -1.28860665520269
H          -1.48541971731539   -0.61335665694171   -1.87471215258629
H          -2.23057331223887   -1.23253570418110   -0.56281894597764
H          -2.19251543605963    0.44087934433043   -0.74716666650853
N           3.38248290005512    1.33799984249385   -0.68534476916895
H           3.28358168086173    0.51693068506639   -1.27101539799636
H           4.09275530789579    1.94159467918261   -1.08070377866532
H           2.48776372666508    1.81738237496786   -0.70541175161045
