    26
        -50.45760677  Gyration_radius:  2.49516331135 Dipole_moment: 2.750
 S           1.13770080064211    0.85161167309328    0.05068301494496
O           0.15845276669436    1.10832790636094   -1.01984314405871
O           0.54400266264577    1.09025949160727    1.35210854235139
O           1.68653132789408   -0.49374005082077   -0.06924831232165
O           2.31487607985978    1.83621112714005   -0.16091274353319
H           1.85905825067540    2.71343643126013   -0.04324116288716
O           0.76738817558232   -2.49797086640659    1.40626076350020
H           1.18842700102152   -1.73274768322439    0.95660725797137
H           1.30950688331859   -2.68828173976055    2.17289815448574
O           0.77183084430395   -2.49432984625078   -1.53377532239860
H           0.50233719796037   -3.03841050391594   -0.78416883865729
H           1.33516661291506   -1.79448079053115   -1.13886132235399
O          -2.79123525346666   -1.07417551745078   -0.40774182777168
H          -2.26777191841612   -0.98178904583443    0.44654055036321
H          -3.45220596252642   -0.38036179711575   -0.39232104116306
O          -1.32957266470721   -0.76543589908572    1.69845773841208
H          -0.72004927881272   -0.00005827189765    1.63847364975632
H          -0.74224722974768   -1.54109792134473    1.73708143123558
O          -0.98534888920803   -0.76942992443912   -2.14353873959185
H          -1.78187884725804   -0.92894763101024   -1.49650682500729
H          -0.47860702391011    0.07022683818062   -1.72994176907728
H          -0.32838159214033   -1.55319711648581   -2.00841116645480
N           0.57597515628492    3.71389335809189    0.29992852001009
H           0.51958461903822    4.65656014102633    0.66389080754268
H           0.24598707735146    3.06072386531695    1.00500381753880
H          -0.03952680599620    3.63320378349183   -0.49942203284076
