    26
        -50.46407693  Gyration_radius:  2.36397455571 Dipole_moment: 3.031
 S           0.51583439255118    0.73386303958178   -1.07466917166666
O           1.38473283079579   -0.05365213895690   -0.19784153349044
O          -0.85952815805037    0.21360370563936   -1.02029638478297
O           0.54002042851595    2.13952537580977   -0.72262992223573
O           1.01449918279350    0.56657464985367   -2.52641112670927
H           1.01714481823723   -0.43272890232246   -2.62737757607442
O          -1.59466537909935   -2.17352845381799   -0.27081572000897
H          -2.55151102317027   -2.18366403140789   -0.21502682679870
H          -1.35297107788722   -1.29307150993020   -0.64394014976793
O           0.03108558654340   -1.24306353038058    1.67807042911280
H          -0.63949803035991   -1.73464880406431    1.16141100485071
H           0.64252614682412   -0.87738277616743    0.99011477233453
O          -1.94788788531797    1.91990332622798    0.59265556344368
H          -1.67052560869682    1.25489440791520   -0.08742510043438
H          -1.50602434206310    2.72891486572378    0.31392390950041
O           1.54872866737307    2.01817819746664    1.67456360741377
H           2.14779052633626    1.27642222573686    1.53766011401848
H           1.23208557686112    2.23421169674851    0.76177283087065
O          -0.60568669137898    1.00899856085248    2.53534353947146
H          -1.25907467105599    1.39435812472185    1.82660532099372
H          -0.42063176570922   -0.00518295555449    2.26206208206812
H           0.29689077448994    1.48189406970281    2.32920637040776
N           0.99433927284051   -2.02037910229119   -2.21723023217675
H           0.07289578756594   -2.38991547617793   -2.01476462516274
H           1.44967118194997   -1.83735862661206   -1.32858623557066
H           1.51975944910998   -2.72676594830706   -2.71637492960066
