    26
        -50.46407682  Gyration_radius:  2.36395877602 Dipole_moment: 3.032
 S           1.00165338656029    0.66143164342134    0.71962301927213
O           1.26301855760723   -0.39068390945943   -0.27535136768025
O          -0.29392925782267    1.29048632406164    0.45557481598850
O           1.06367176105056    0.11643751046298    2.06106281171805
O           2.10147131767547    1.73281979274560    0.55667035030800
H           1.91558714934901    2.07714358589934   -0.36846572349854
O           0.63762861093070   -2.49958651457185    1.08784956896110
H           0.96630446569654   -2.24851773391794    1.95751449778579
H           0.97653574650334   -1.78323184937048    0.49311598278251
O           0.17398309805153   -0.60814781688010   -2.63474275006831
H           0.43767261400541   -1.45206565726444   -3.00485819136797
H           0.67268850705106   -0.51384217433754   -1.78900973323263
O          -1.86691035501605   -0.28339381274023   -0.89128806003625
H          -1.31449478552601   -0.50260221701319   -1.66906170893157
H          -1.34742299932213    0.41415343686624   -0.41756111198424
O          -1.46708658900685    0.04548158596556    2.66858935772839
H          -0.47892116892024    0.07959592598223    2.61803369994659
H          -1.74592485113916    0.84106219628682    2.20264118336684
O          -1.81030161015745   -1.85920604427221    1.03916908314297
H          -1.90378325061566   -1.28344800298716    0.14644112664244
H          -0.84853051513278   -2.25004978329463    1.04259749866016
H          -1.79219599447065   -1.13906260383913    1.78877683434674
N           1.11491614264476    2.36882767372082   -1.76924938662466
H           1.19822932536116    3.23772725295991   -2.28137629642422
H           0.21287400086043    2.34558892240760   -1.30417811910539
H           1.13326668380704    1.60308225918754   -2.43251735170314
