    26
        -50.46460255  Gyration_radius:  2.41091879643 Dipole_moment: 2.669
 S           1.10133351927848    0.51066400148942    0.69152463425810
O           0.83014868505844    0.56585851180393   -0.75093439638094
O           0.14638310834263    1.36788745338562    1.40596002841989
O           1.07558603465194   -0.85317079842624    1.18111935453826
O           2.52152956524959    1.07365265699490    0.92699573189480
H           2.43819502551652    2.00390891027962    0.57119152288918
O          -2.14195022223134    0.40612106212123    1.17905979057281
H          -1.24310935055806    0.89451160547196    1.38503274001607
H          -1.93272741163159   -0.59618897474066    1.43800467318144
O           1.27757747034639   -2.00109936715867   -1.27216226812626
H           1.21353139987269   -1.02724061617229   -1.32879961857009
H           1.55721375050568   -2.14048069437189   -0.35833855500155
O          -1.28949739596267   -2.50631796526143   -1.16100376264883
H          -0.30257831882253   -2.39048562378016   -1.26207494404877
H          -1.53384954332125   -3.25570579293161   -1.70515811854293
O          -1.31162691227404   -1.93163966277103    1.51516958901996
H          -1.42330905565840   -2.32335707314734    0.62825328122996
H          -0.36798321535905   -1.65514560778751    1.55599208490220
O          -1.72828583230914    0.18592393251034   -1.28532597794309
H          -0.77436148370479    0.42550839018357   -1.22220917188562
H          -1.73596035404961   -0.78147566881991   -1.41511819326516
H          -2.14365498399725    0.38744734565054    0.12859157895828
N           1.64989742046722    3.28371247415902   -0.10980685530624
H           0.85183973699626    3.22963251615327    0.51382197438902
H           1.36990853358634    2.87316912601716   -0.99244498564371
H           1.89574983001487    4.25430988914486   -0.25734009690020
