    26
        -50.46460232  Gyration_radius:  2.41125205437 Dipole_moment: 2.667
 S           0.26186764743961    0.74945823452064   -1.14843517647235
O          -0.69870064799551    1.72864526420514   -0.62291182472673
O           1.19822802011795    0.35878996751018   -0.08664530224123
O          -0.40101707143828   -0.40637896665146   -1.71856219231747
O           1.07773692808523    1.43149754756215   -2.27012478972219
H           1.48291876430921    2.20864188652272   -1.78921753859047
O          -2.35146004179323   -1.46179332347614   -0.28510262004993
H          -1.74173103555392   -1.13594806881652   -0.98557478246537
H          -1.82704065112071   -2.10471656346915    0.22891378427848
O           1.35341568746591   -2.21908712946012   -0.71050718043828
H           0.80621886453467   -2.06685586183543   -1.49158210191630
H           1.55221834857834   -1.31038192462949   -0.40949473276388
O          -2.13891140638766    0.62271053134940    1.08486224259558
H          -2.40803603914368   -0.24479290298460    0.54576978835400
H          -1.63962745842294    1.19716189187006    0.37119624210929
O          -0.42419225958978   -2.80354681679936    1.12114648700817
H          -0.31480228597374   -3.69303798806247    1.45917537859619
H           0.28772694661480   -2.67054106943598    0.43321787068667
O          -0.05826592088051   -0.29724456533731    2.14166984429260
H           0.53356805635439    0.00056185680734    1.41195899360004
H          -1.34704346658080    0.29264948178672    1.69149589789695
H          -0.15970612069103   -1.25849478534873    2.00578027785020
N           1.76575619896384    3.18944860795943   -0.49372027855044
H           2.20712048566894    4.09471826068779   -0.39406944496490
H           2.19701804701096    2.53640830863132    0.14917181895538
H           0.78674039042525    3.26212810691073   -0.23841065101001
