    26
        -50.46342066  Gyration_radius:  2.49337988549 Dipole_moment: 5.571
 S          -1.78122544480459    0.63829621347502    0.81769536197845
O          -2.01349413183722    0.19244267821639   -0.54405584853189
O          -1.39131143279732   -0.43163941299095    1.70790577667430
O          -0.86584597613737    1.77784605286923    0.84983299741228
O          -3.15856467781576    1.18745006797615    1.37267857949003
H          -3.56634547738398    0.38619301203047    1.68337253656428
O           0.15771117361491   -2.62863670571158   -1.98909518511541
H          -0.05370254339394   -1.72329643473453   -2.27601772086806
H           1.02830785133788   -2.83663994667652   -2.33221328490460
O           0.86934698769999    0.89385287450228    2.72092819754698
H           0.38084783856852    0.10257232919840    2.97120618686291
H           0.24404865868658    1.38422324532902    2.15899129226068
O          -0.42012374329908    0.01985562672867   -2.54470121311852
H          -0.94817827866038    0.20977045815756   -3.32198994433638
H          -1.06034530792805    0.04762709963086   -1.77767835082384
O           2.38836472309832   -0.09084506873809    0.75208434099954
H           2.07894236764710    0.30728141913399    1.59750503485698
H           1.76563139011643    0.80268079694338   -0.21890612131880
O           0.57231980194034   -1.97058517195272    0.65277147951790
H          -0.20173356765794   -1.52224600502487    1.03758672311051
H           0.29688087049851   -2.32082521813631   -0.21259834621282
H           1.84186604879907   -0.91783257594050    0.68534907486078
N           1.13251872917181    1.47926419309911   -0.83056370916532
H           0.74784314804057    0.97711542728711   -1.64763675672208
H           1.63742260207309    2.31322924254142   -1.10854654552356
H           0.31881838044094    1.72284582280376   -0.20390455544878
