    26
        -50.46516750  Gyration_radius:  2.53902180126 Dipole_moment: 5.798
 S           0.20771372069475   -0.57370495465628    0.11079637380792
O          -1.24310941867605   -0.24019126960278   -0.36239494404784
O           0.83629602627275   -1.11390432678381   -1.10564174200817
O           0.83325462988186    0.69177130819910    0.48400715288335
O           0.15505218784474   -1.51855571603713    1.19635222695293
O          -2.09710554941266   -2.36697041796184    2.32641477079874
H          -2.38117570284806   -3.16236583274818    1.87451656250160
H          -1.21156307163263   -2.15008689729777    1.96669480768730
O           3.15095294729735    0.14141335563416   -1.70795632081353
H           3.78854384361764    0.01569560046788   -1.00357068397756
H           2.38732738283235   -0.42660820420229   -1.48327921834590
O          -0.22857496243496    0.75519315058300    2.92377631960632
H           0.25818389782442    0.86295795939267    2.08431704043338
H           0.00497468569835   -0.12345929815310    3.23590250838702
O           1.48945895589219    2.24553853529577   -1.52725678301218
H           2.30918258212267    1.75031947090723   -1.73097097278641
H           0.49455821027398    1.46482776403379   -2.32063151999728
H           1.23642367319682    1.88583965098040   -0.64518531038914
O          -2.54830194288744    0.22261317981531    1.73698628481375
H          -2.66317688714223   -0.69266116668813    2.06191968821540
H          -1.82811569294940    0.59538201425212    2.29797176630058
H          -1.81850156324730   -0.02205842786264    0.46965175396559
N          -0.15164954405730    0.65075420164296   -2.68476588009571
H          -1.10524164100696    0.77699441774232   -2.34915454253081
H           0.23890752458565   -0.20388254163728   -2.15607486714194
H          -0.11431428174556    0.53514847468416   -3.69242444119653
