    26
        -50.46193179  Gyration_radius:  2.40659728702 Dipole_moment: 2.044
 S           0.42825154409206    0.95830199018274    0.89896545493114
O           1.58575100989919    0.12336687829764    0.60887242506592
O          -0.40899924188665    1.07827970311885   -0.31512083595398
O          -0.35535055862350    0.46982595905397    2.01363323294484
O           0.90989203140489    2.38446171533490    1.25046701254003
H           1.50684781750328    2.61011810318334    0.47940364842372
O          -0.94937329868692   -2.21626071313465   -1.40439579500471
H          -0.27147400311044   -1.67911888385588   -1.88834738667750
H          -0.51100823335807   -2.43140671328842   -0.54245202340904
O           0.29178775093413   -2.18653495877786    0.91851229582390
H          -0.23476110534344   -2.08144374667754    1.71423795745137
H           0.86588068034956   -1.39543102451484    0.87137168324725
O           0.90577897244165   -0.44661297462838   -2.05215865997622
H           0.42201862423484    0.23492269707232   -1.54114405940172
H           1.61665980440531   -0.71787039083893   -1.46176641748811
O          -2.54971981080054   -0.88525172770979    1.91817682918985
H          -1.70927986041433   -0.37321120488766    2.05045064765206
H          -3.20946243731971   -0.46326931020422    2.47097986314310
O          -2.42331643077207   -0.41429819120143   -0.59744818012666
H          -1.68871111784361    0.29679048353643   -0.51561373325917
H          -1.85262849620817   -1.28521117225102   -1.02849280384111
H          -2.62894794918463   -0.66879833867911    0.36308907960022
N           2.43225982204791    2.39677015382039   -0.86266361417116
H           1.90437014516403    2.39821226211666   -1.72599704502682
H           2.60754173999891    1.43165389202757   -0.59879785022089
H           3.31599263079423    2.86201552321486   -1.02376173582031
