    26
        -50.45674973  Gyration_radius:  2.50109196455 Dipole_moment: 1.716
 S           0.42162509515888    0.51147195231630    1.12369521924224
O           1.47855949162750   -0.06785620836979    0.31494524644986
O          -0.03680037136545    1.78862646732749    0.59867685416105
O          -0.70022691957024   -0.42702383018806    1.26990766197962
O           0.96227068145021    0.73381063926221    2.56472807991482
H           1.70809589768887    1.36238064292098    2.39685634497084
O          -1.68917403082665    1.82976566323831   -1.39878570820073
H          -0.98276006213458    1.86609038108640   -0.70123074326834
H          -2.23368501086960    2.60767755598502   -1.26379458643474
O          -1.34706024453523   -2.22158751419659   -1.65852622909533
H          -0.53404492600650   -1.73510815200648   -1.97237004710704
H          -1.03358422175097   -2.71830900993124   -0.86215318657983
O          -0.41829470644621   -2.99992074511178    0.68821048161349
H          -0.37014827606811   -2.06373570286595    0.98031735342070
H          -0.91604066634059   -3.46328992066904    1.36369922437342
O           0.86732204774222   -0.91151455287728   -2.08663941149141
H           1.61753530038943   -1.45132737779742   -2.34205481071579
H           1.09085373104693   -0.55391903843364   -1.19327484950558
O          -2.52359778158470   -0.40466645521694   -0.49421547332220
H          -2.30716016080791    0.46522448293942   -0.97777234886716
H          -2.06890393639297   -1.25647912447152   -1.10950099089242
H          -1.90275495358427   -0.38616947504416    0.31075569421845
N           2.66991443808012    2.29044247937834    1.36121680441414
H           2.87999882692910    1.51232319397255    0.74491541149588
H           3.47339625438965    2.90514546047375    1.40545220634715
H           1.89466448378464    2.78794818827850    0.93694180287683
