    26
        -50.46455191  Gyration_radius:  2.42037709092 Dipole_moment: 4.945
 S          -1.18162923983940    0.52512669429253   -0.28964445524876
O          -0.51384193134108    1.78788108825756   -0.01721907974729
O          -0.32071366143060   -0.33597214885451   -1.11271833507494
O          -1.57956415106017   -0.16942582460866    0.93000582582723
O          -2.47705341314161    0.79077531177588   -1.09148108275953
H          -2.14750552757646    1.34153818406019   -1.85732542619349
O           1.23109818720878   -2.33437049883866    1.55553976618692
H           1.77836313770601   -1.82905342807034    0.92448100614974
H           0.47035483762090   -2.67094822260615    1.01487923219840
O           2.13587067275182   -0.54224929043543   -0.28486868786608
H           2.69969763475845   -0.73527999385290   -1.03510210110594
H           1.21650674086069   -0.44237520383265   -0.64735824771092
O           1.52044881115334    1.37804283078016    1.58760947591433
H           2.05570021036962    0.83703066976484    0.98429465883117
H           0.77980958421657    1.71610740232210    1.02968701015476
O          -0.86618084165190   -2.70706605101172   -0.00647177759629
H          -1.63744222970157   -2.45689770832781    0.51044295590743
H          -0.68487098223716   -1.92375321757333   -0.56335933633917
O           0.16460419221010   -0.40610520874329    2.72597678881106
H          -0.65045640358128   -0.29770950021089    2.11025993984524
H           0.64130213959672   -1.29090546665057    2.35246859408778
H           0.78488741083351    0.38086858718775    2.42163266161412
N          -1.07884475004163    2.22400307934637   -2.75167139589356
H          -0.56680200417632    2.45293381767979   -1.90376263815568
H          -1.27977335292535    3.07547799172699   -3.25962198804942
H          -0.49396505056560    1.63232609642444   -3.32667336378122
