    26
        -50.45674978  Gyration_radius:  2.50107731731 Dipole_moment: 1.714
 S           0.35097404376562   -0.46533168511571   -1.16723304461055
O          -0.68763944693529    0.54657134617071   -1.23199858723450
O           1.66014066861241    0.10580035373492   -0.89004116881885
O           0.01249405169036   -1.50097202030099   -0.18052760983044
O           0.41239110473703   -1.20414011138870   -2.53423143901666
H           0.63666498112956   -0.45977034061175   -3.14673617125645
O          -2.45652653033925   -1.74271070393630    0.75905728213890
H          -1.61865913661832   -1.63398023129666    0.25881988791300
H          -2.60642008412026   -2.68724235241289    0.82331879807977
O           2.28367835615213    0.74967284280509    1.54280885579324
H           2.05455510475860    0.61233548337216    0.58595559423793
H           3.22889863666668    0.60241457183037    1.61166139763399
O          -1.34152126768532    1.78171247989631    0.98154896686710
H          -2.17193701726160    2.21268987344039    0.77141466730665
H          -1.05733209520264    1.33452336605718    0.14776899099012
O          -1.51404605362408   -0.19199560005786    2.67783273181739
H          -2.04143929642075   -0.79546357362590    2.09731115341513
H          -1.45668281038970    0.65499492491444    2.15296423856471
O           0.71057015653518   -1.13681351617376    2.23148826126377
H           0.51047964854704   -1.40939542105267    1.27265311222832
H           1.36145506423279   -0.36086803955668    2.12408401988423
H          -0.29491821212316   -0.69340380503495    2.55384729376715
N           0.97467192445737    1.16870866693595   -3.45128964891879
H           0.14290955015517    1.50280409324748   -2.97590948690644
H           1.17580821392525    1.77707762294361   -4.23541493271064
H           1.73143044535618    1.23278176521882   -2.77915318259836
