    26
        -50.45793251  Gyration_radius:  2.46043518564 Dipole_moment: 5.060
 S           0.70034425518909    0.37786788616779    0.63076967494504
O           2.11238588014695    0.09743853828937    0.65178029553582
O           0.20227986554883    0.51114498380753   -0.75928321702524
O          -0.12020378171926   -0.55187370975856    1.38067119465429
O           0.43558507039108    1.78283306007802    1.28145744174827
H           1.10815158741769    2.37399765429666    0.82897857481730
O           1.61568612187524   -2.58610871086511    0.65528778148074
H           2.09170569806617   -1.74026822978842    0.64809256499490
H           0.88311470589008   -2.43406230914357    1.26273258234885
O           0.21349470252260   -2.08358042704049   -1.58220574413367
H           0.75116740700581   -2.49199684613908   -0.86994907279861
H           0.35084919987045   -1.12789037163763   -1.47285064909031
O          -2.34255251346884   -2.08432707078662   -1.18799019794566
H          -2.74359646256972   -2.36417399924101   -2.01313676797623
H          -1.34965909141841   -2.20723374979067   -1.30356002020588
O          -2.29909140589460    0.80188229281609    1.72357488591970
H          -1.52548309128988    0.18887430417442    1.78878662538975
H          -1.94405202701063    1.66818616210625    1.94136544678543
O          -2.27489844888965    0.39774221437962   -0.77984356521960
H          -2.40979196045484   -0.63214831412089   -0.93431022175901
H          -2.46275340040229    0.58278770220783    0.21666874388003
H          -1.22446238825647    0.51059347228724   -0.84550449275005
N           2.35134043108651    2.78928825656298   -0.15227367738388
H           2.07432225494346    2.91960580510346   -1.11655802243765
H           2.72411470219152    1.84696323049881   -0.05859110560573
H           3.08200271921625    3.45445817556410    0.06589095182136
