    26
        -50.46516757  Gyration_radius:  2.53883716036 Dipole_moment: 5.804
 S          -0.57409438048926    0.19977954196796   -0.12412882564840
O           0.41688019179343   -0.35874583792249   -1.19455960364686
O           0.00162320921981   -0.09999594775541    1.18383090756415
O          -0.54651668838661    1.65031927970175   -0.37277959882282
O          -1.87371767166291   -0.38994881580585   -0.31695764163214
O          -0.00632756329911    3.06522522330654    1.86382935335231
H          -0.69138339371445    2.92328194554767    2.51885085613201
H          -0.31823483730663    2.62320849725946    1.04920542188317
O          -2.39652689739095   -2.29173556199630   -2.09989260897730
H          -2.32666837278606   -1.57495899612306   -1.43503162946941
H          -2.67879287909684   -1.87384533325274   -2.91423821848703
O          -0.91185123788996   -2.59882178542776    1.26144525338990
H          -0.53666206272200   -1.70806469473479    1.39910959299401
H          -1.83830659711175   -2.44910210643635    1.05327650889860
O           2.07509983911805    1.36587738692871    1.84662380911856
H           1.53180147709655    2.13358697401726    2.11872178036511
H           1.40380136519112    0.64921193442864    1.76047073603081
H           2.22169362850301    1.63883412236645    0.38656639010872
O           0.07808368946725   -2.85072268249496   -1.19416531775981
H          -0.17207142234485   -2.98110249390965   -0.24930621654950
H          -0.76883427962015   -2.89925796938527   -1.68085712924005
H           0.32863668877066   -1.38962938226562   -1.21866996602882
N           1.99707022204369    1.78963629280155   -0.68117398497220
H           0.92091832840225    1.85371024097226   -0.68035149269799
H           2.22859186223158    0.95298041843511   -1.21434337923199
H           2.43578777198930    2.62027973978114   -1.06547500668124
