    26
        -50.45987762  Gyration_radius:  2.41932716067 Dipole_moment: 3.163
 S           0.26655437054231    0.44677593238910    0.92725692967040
O           0.97530695635564   -0.61315909628298    0.19322112866876
O          -0.58197182003419    1.19971645675495   -0.00030507951425
O          -0.51280948408765   -0.10796300837465    2.02193969759917
O           1.30736641144930    1.39598995054919    1.53800416534406
H           2.06747423062113    1.58062973176576    0.86926698272652
O          -0.39573930032093   -2.63049386124151    1.05405920533403
H          -0.55219986337884   -2.26208710413291    1.93305823470116
H           0.25470271737205   -1.99265059208813    0.66217482078440
O           1.35859370730184    0.76678504662558   -2.02454610507153
H           1.30261691028735    0.14069930358791   -1.27284534590575
H           0.68904994054045    1.43212298976571   -1.83450163457655
O          -1.34856039804789   -0.40369069422150   -1.89174341130194
H          -1.09222414275549    0.27397024899550   -1.21030006527196
H          -0.53774120096696   -0.60549852434259   -2.36955893688357
O          -2.93411304800069    0.06419605699870    1.16715224219540
H          -2.06728485542665    0.04703097900111    1.65408369005667
H          -2.86285099966118    0.83396542190976    0.59302910053210
O          -2.44115101776352   -1.96217627282175   -0.24213681877536
H          -2.03005246294089   -1.45115358276004   -1.03996873469923
H          -1.62140673966245   -2.36286172959003    0.28813675442879
H          -2.79721536432817   -1.18424518537357    0.36339294643426
N           3.21008950721244    1.82823505467907   -0.15595999022752
H           4.00538492090618    1.23958757036746    0.05176843657656
H           3.52264173836303    2.78750932631710   -0.22228538533989
H           2.81553926643601    1.53876555145905   -1.05239280748346
