    26
        -50.46564185  Gyration_radius:  2.42039214571 Dipole_moment: 2.447
 S          -0.34685102708580   -0.57210079697588   -1.11035086852809
O           0.00944391261217   -1.81607771460286   -0.44921603179267
O          -1.27507001079527    0.20829982762700   -0.27492525709655
O           0.82491618947154    0.22750680687212   -1.44780785104929
O          -1.08026299485694   -0.88446815045120   -2.43447312874038
H          -1.83239391269934   -1.46505526437768   -2.12068399484977
O           1.25950194433324   -1.27197608283373    1.79016418778252
H           0.83133718647171   -1.65908845849714    0.98996352370653
H           2.03081642887574   -0.78678446034495    1.45089110869961
O          -0.08780594857968    2.68621237914575   -0.94395045190215
H           0.30800773746632    1.87026934857906   -1.30791583998867
H          -1.00626203242169    2.45190157163631   -0.78168381539331
O           2.74623657203860    0.49397538177307    0.30376880019411
H           2.07256903405749    0.36437776464515   -0.40899411827304
H           3.59724692839618    0.51820852011009   -0.13593698357668
O           1.15988975387490    2.45137453457346    1.37369335227982
H           0.72679365616521    2.74591972966385    0.53211668361238
H           1.92334632073337    1.91351923648969    1.09378572870218
O          -0.39050337683375    0.60825788372026    2.03476358269944
H           0.23574011598511    1.45867798577494    1.86623044129947
H          -0.86069452225157    0.45425410210881    1.12278911145171
H           0.27201386978678   -0.20061468398694    2.10219240438565
N          -2.71744817305742   -2.33941737891161   -1.04238809110512
H          -3.24716292242828   -1.69484898399757   -0.46997388743649
H          -1.87821993665904   -2.59391632195916   -0.52940387185577
H          -3.27518479261678   -3.16840676575970   -1.20265474321317
