    26
        -50.47291477  Gyration_radius:  2.43847011976 Dipole_moment: 3.487
 S          -0.89760428094141    0.90894367183938   -0.46895975865238
O          -0.63327248686143    1.13959347137865    0.96350135855737
O          -0.67807243492535   -0.51632328715188   -0.77045747372646
O          -2.38551422339177    1.22113731230960   -0.72720705802893
O          -0.08818109999202    1.76062196060439   -1.29883887898852
H           1.64137492309882    1.79636264825632   -1.26759609730603
O           2.52593123046628    1.39148024738721   -1.14285333060583
H           2.30199800423521    0.87440824301586    0.31084129246993
H           2.46482628919919    0.57872224954289   -1.68057129646600
O           1.46026970340812   -0.79305648106895   -2.35447205908943
H           0.62640534477510   -0.65012685788509   -1.85747703519981
H           1.25267695357268   -0.60004455607903   -3.26987864249700
O           1.26749406445225   -2.00780423590837    0.32788684630249
H           1.75418982494729   -2.20220207267259   -0.47947560565038
H           0.42481780928464   -1.61856187250130    0.01818755544911
O          -2.24264435661867   -0.24022592514807    2.53666966817866
H          -2.77256287315413    0.38372019086173    3.03543658287257
H          -1.60089401917185    0.29573648279574    2.02028311116719
O          -3.16315200263304   -1.05586106356560    0.15633667083286
H          -2.98558684026127   -0.94399965579845    1.11503125914118
H          -2.86200489859512    0.39715696793252   -0.41267125381633
H          -2.33268339609491   -1.37408961178811   -0.22458891064644
N           1.86991653228152    0.42844801717320    1.18831754041366
H           0.87455400133969    0.79068300840865    1.23155298813200
H           2.38561735009428    0.64409149054971    2.03416708581758
H           1.79210088149886   -0.60881034248071    1.01683543134447
