    26
        -50.45296538  Gyration_radius:  2.61669002155 Dipole_moment: 2.351
 S          -0.26689821093642    1.26229895599205   -0.12254204970015
O           0.52567784965305    1.15181732749397    1.09530740521258
O           0.54439933459898    1.36419627293028   -1.31491911264904
O          -1.22966767959133    0.15196426813909   -0.21379940054807
O          -1.14590052422488    2.54388848074844    0.00055147991342
H          -0.45399983735211    3.24751632050611    0.04884612806936
O           0.66029215577528   -0.88087400248777    2.66773498567276
H           0.73492950808818   -0.10598248415742    2.04513961978831
H           0.63096500584779   -0.50831853061485    3.55116605617507
O          -0.78676179654552   -1.90262645068630   -1.92397335586150
H           0.15914146582598   -1.72664067833845   -2.11100578899546
H          -1.08743569763888   -1.09122013143301   -1.47653719274511
O           1.67251100510259   -0.86143152338377   -2.21194546362476
H           1.32031281780731   -0.02215812791872   -1.84225919556306
H           1.96992887971621   -0.65063108274768   -3.09881685889285
O          -1.13212670338323   -3.51733384358261    0.04481935440229
H          -0.92533832950431   -2.97139650937168   -0.78229197208579
H          -1.91938953372405   -4.02447995339852   -0.16175597341120
O          -1.51076947763029   -1.55996835340928    1.57189848510121
H          -1.36329178305358   -2.43475459528725    1.00435879170358
H          -0.64379210935853   -1.40151349966553    2.11029476101195
H          -1.48131023923177   -0.79304970126794    0.85970789973694
N           1.16921434883866    3.74600266805772    0.07706916297605
H           1.71486611616243    4.59727086912590    0.13423038317800
H           1.40172365242394    3.26106825670766   -0.78329342204572
H           1.44271978232616    3.12635604805897    0.83201530319658
