    26
        -50.47050260  Gyration_radius:  2.38414104736 Dipole_moment: 5.664
 S          -1.13734161337534   -0.99018447002693    0.38761851858539
O          -1.53193853775901    0.40852951695985    0.20443405830202
O           0.10480819507563   -1.23116154272590   -0.39339212839998
O          -0.97975832443802   -1.36033548793203    1.76076767008150
O          -2.23959489457011   -1.87721726971831   -0.24831422673602
H          -2.15458807899133   -1.69562318937119   -1.21020946654943
O           2.32731890929608   -1.47710051943022    1.09828705320379
H           2.43963170712882   -2.34640245316158    1.48628459969335
H           1.50505675684800   -1.52183896671736    0.57355405424489
O          -1.08707629117975    1.54836522375596   -2.08001514014443
H          -1.71068360896982    2.25969113100763   -2.23292429560582
H          -1.33384864072233    1.15159908438822   -1.20223170028370
O           0.22561330972404    2.04034944255070    1.42603401166708
H          -0.62852239823332    1.64009827833300    1.17930207986034
H           0.95026646079064    1.61625351381473    0.19772104484572
O          -1.36373719028882   -1.17207733565382   -2.62601279201949
H          -1.38335348204481   -0.20897608671779   -2.74093984823942
H          -0.56155265488645   -1.35342187568266   -2.11252895820169
O           0.98335816850083    0.05951149815510    2.94615909008371
H           1.69253248651795   -0.38499153711131    2.45021437090367
H           0.57179227822041    1.44456766379897    2.14478856601976
H           0.19090329013424   -0.47727445477366    2.76035332314609
N           1.25203436530046    1.11925070068731   -0.73704261173365
H           2.25345863299513    1.14465409410463   -0.89520421817214
H           0.70985974579999    1.53670824355874   -1.50548565686633
H           0.90536140915053    0.12702677789131   -0.63121741768281
