    26
        -50.46258608  Gyration_radius:  2.40945967617 Dipole_moment: 2.829
 S          -0.39058545023030   -0.98117496202630    1.42186961655501
O           0.25912793130756   -1.87793498809110    0.48582056221710
O           0.43848582271162    0.15196066705933    1.78472345761912
O          -1.71711453356687   -0.58211458226182    0.97157629287578
O          -0.60294603942139   -1.81034012553335    2.75241821022717
H          -1.05905997475213   -2.56953745957705    2.40751403847511
O           0.37688497972097    2.20633441574791    0.08301204877551
H          -0.58461305054612    2.28221729238449   -0.07162391945033
H           0.45263152363564    1.57529239301237    0.82753430949221
O           1.75883708796004    0.83589649674647   -1.54110855438780
H           2.31552836146515    0.30655202379870   -0.76559168268587
H           1.19418199076244    1.49878951280162   -0.99677618161770
O          -2.29677144001108    1.87872186953188    0.15690230136246
H          -2.77957535072602    2.37427816116009    0.81954863745012
H          -2.12731680952229    0.99104963757224    0.54374644625556
O          -2.34953515518084   -0.41073168222278   -1.67059689467898
H          -2.57181605959411    0.52528759283551   -1.65535229271406
H          -2.24922267046846   -0.65947077975261   -0.73440217077304
O           0.20623600015862   -1.06348297472559   -2.03286162653564
H           1.10107688111354    0.09137171155990   -1.87555721843310
H           0.25471239899795   -1.50049059952269   -1.15453150710207
H          -0.74194561190356   -0.82448909867487   -2.13195256661151
N           2.75329396766635   -0.46128103905654    0.37387405808540
H           2.02136617101342   -0.25506494114431    1.06150557858877
H           3.66057899252661   -0.27282899386319    0.77941327681989
H           2.67756003687991   -1.44880953776159    0.16089580019193
