    26
        -50.46545138  Gyration_radius:  2.4303291029 Dipole_moment: 6.500
 S          -0.46482845754252   -1.24028020051864    1.32632749667562
O           0.65698408760907   -2.10229938202371    1.00555752414505
O          -0.00666802971524   -0.02689271492115    2.01387777619953
O          -1.31577837707669   -0.93423661913060    0.20584413472515
O          -1.34881929219406   -2.02602111522194    2.37225617868100
H          -0.69248117060643   -2.38496504305022    2.95949474313593
O           0.08923995140961   -1.61621018113585   -2.14930044677187
H          -0.39624260107850   -1.67029410894783   -1.31376472729548
H           1.01311727446750   -1.48876372605345   -1.90422621473274
O           2.43141770076405   -1.10929081669667   -0.60682261296823
H           3.21926041716114   -1.65475600350341   -0.61236952812907
H           1.79552621390573   -1.54507412199195    0.01847158718744
O          -1.89988745866115    1.72146771986134    1.22162471949152
H          -1.25777539500384    1.11629657879007    1.63477264434481
H          -2.56662910548552    1.15217466227411    0.83001556501343
O          -0.40559552493530    2.50693466629717   -0.87748606661855
H           0.75867327182294    1.83182354465582   -0.28928246214723
H          -1.01798756785034    2.49086306755903   -0.11014796328700
O          -1.60396660050738    0.53547491349648   -2.14459614345001
H          -0.82391777507422    1.87630575028346   -1.51755200278890
H          -1.01516590556926   -0.08627998169984   -2.60100946834232
H          -1.81428505675780    0.07092046934031   -1.32159529652784
N           1.51360219624550    1.28876410330144    0.31006424824151
H           1.99054261229916    0.54829685341561   -0.23047000428633
H           0.97432434571562    0.80788591808628    1.07815450691574
H           2.18734024667480    1.93815579754898    0.70216183257300
