    26
        -50.46258610  Gyration_radius:  2.40947801701 Dipole_moment: 2.831
 S           1.19617970674669    0.26138004211473    1.27991899921926
O           1.83355989365448   -0.18634106472385    0.05674645464235
O           0.50038239213938    1.52378656340891    1.12310744483496
O           0.35041061339472   -0.76318578873507    1.87733645198236
O           2.36711413819646    0.52789413748284    2.30992791840294
H           1.87618772823542    0.90809680384519    3.02942626974289
O          -0.55173445939228   -2.86843027935399    0.53304088677391
H          -0.07098822415904   -3.66812528948126    0.75014863196586
H          -0.15123686652821   -2.14974117936741    1.07116021980945
O           0.25390403191837   -1.50187611233369   -1.64478406710432
H          -0.20220231313948   -2.11008539746790   -1.03134621296704
H           0.96758596205195   -1.10510204403374   -1.10490053571491
O          -0.86924451780638    0.69662008789320   -2.21950726970332
H           0.03178744027286    1.29905690631794   -2.08637176913325
H          -0.52040404851419   -0.25940580173621   -2.08119928542846
O          -2.35037714924520   -0.78419398652533    1.53453919963142
H          -1.43795909834563   -0.70536571926895    1.86562485071334
H          -2.38575208666023   -1.64699264398586    1.11013007425951
O          -1.88031883711719    1.32667243946188   -0.01896604483637
H          -2.27531666797822    0.58956540462168    0.49740868713691
H          -1.04411218531904    1.53196893459547    0.45358007080873
H          -1.41560449709635    0.93980506074022   -1.35898851056105
N           1.23197457098189    1.94683136494407   -1.62000559286002
H           1.65136504368545    1.21797153585351   -1.03353161703930
H           0.98186757909604    2.70713136065088   -0.99895501789740
H           1.91293185092961    2.27206467508930   -2.29354023668007
