    26
        -50.46516757  Gyration_radius:  2.538810045 Dipole_moment: 5.802
 S           0.00114780809251   -0.60915419775380   -0.11949525925916
O          -0.74203896426443   -1.76573397121156    0.30943111222200
O           1.13052724841559   -0.93438079986800   -1.00569008097081
O          -0.83968067468036    0.41755654069790   -0.72853245273045
O           0.69982536197230    0.04895335867250    1.11273553684529
O          -1.02247849540275   -2.49755898003199    2.85005107149660
H          -0.31784984211565   -3.10864908414151    3.06824601088599
H          -0.95921505043417   -2.34161802950108    1.88447543654069
O           0.79861188911834    0.05655386587470   -3.49679967090531
H           0.02313423120226   -0.33009838347645   -3.90625238262074
H           0.92547691203371   -0.42420199568425   -2.65476904030936
O          -2.87592570657621    0.06051611315001    0.94789931817572
H          -2.24011352289028    0.28952274792705    0.24328702511509
H          -2.98328746412221   -0.89271211578773    0.88587833146689
O           0.45822628512743    2.28639157359847   -2.03629124718561
H           1.64827980632534    1.88036216109169   -1.23170935101562
H           0.58563490595513    1.73484938017260   -2.83511022137713
H          -0.20594573670088    1.76911434108513   -1.52350012131920
O          -1.06882821455758    0.19548212573362    2.89452373775376
H          -1.09538248414648   -0.74142517020654    3.17392746231845
H           0.00317482413174    0.14932135676180    1.87159511610759
H          -1.86571578630887    0.30608535211231    2.32441251530753
N           2.36352178675002    1.28618121067514   -0.64145175484944
H           2.00768669310884    0.28054872343605   -0.79777123537227
H           2.24614566588731    1.47438195246567    0.35291160965369
H           3.32506852408293    1.40971192420853   -0.94200147597218
