    26
        -50.46583682  Gyration_radius:  2.48709369429 Dipole_moment: 6.441
 S          -1.71349093515636    1.01305652085258   -0.17996587473297
O          -2.39750085186654    1.04574843496667    1.09355644280883
O          -0.47286294466124    1.80109488933013   -0.14851064329760
O          -1.49188699473557   -0.30562754639609   -0.71660880254829
O          -2.66723079034924    1.76450048370058   -1.20627337091709
H          -3.11472107478094    2.39960275367742   -0.65710776396962
O          -1.27641842442697   -0.66165951163025    2.72459292123773
H          -1.45556615625153   -0.26199730880928    3.57773084626495
H          -1.73774844241768   -0.09055046217282    2.06615192245735
O           2.01026981157022   -0.52774466630215   -2.00065978828626
H           2.03825595604510    0.16690101216479   -0.68814462695783
H           1.34413236320691    0.01522118214057   -2.47933853464469
O          -0.10744505194101    0.96859948345914   -2.69834236311071
H          -0.18109058690845    1.51443401429528   -1.89974126149845
H          -0.81051095976823    0.31809023770611   -2.58805205206927
O           1.11791720062896   -1.43838739368816    1.95012847176386
H           1.40545330177153   -2.10970876535542    2.57032087554816
H           0.20742541511791   -1.17081425346580    2.22903260874395
O           0.42421744818943   -2.21889171455726   -0.70960858273111
H           0.68879028671100   -2.16433674507246    0.21873583526242
H          -0.37399945127582   -1.66556369028761   -0.77245146850354
H           1.51437838985526   -1.32823517655592   -1.70427157282733
N           1.83923315194852    0.63234912413836    0.28893319584880
H           2.57256293527884    1.27832379479183    0.55764000801994
H           1.72084057852221   -0.11478798509003    0.99084936730526
H           0.91699582569315    1.14038326818045    0.18140422084798
