    26
        -50.46583691  Gyration_radius:  2.48716733301 Dipole_moment: 6.431
 S           0.99872432387379    1.59623430259872   -0.66981545806155
O           2.29833781282028    1.19032494984564   -1.15669660257251
O          -0.08345339083778    1.08090172655716   -1.52088323016677
O           0.75759760620120    1.31700146177184    0.72299143144353
O           0.94778136548575    3.17720653730145   -0.82957065534786
H           1.50305560944294    3.33356119795342   -1.58615845056868
O           2.78234374416175   -1.26380364300313   -0.39804016025730
H           2.61695760468402   -0.31205146801984   -0.59653761538814
H           3.36458087561328   -1.57171734299370   -1.09506694779315
O          -1.76981780817185    2.24455660720728    0.24671403616031
H          -1.32506191809127    1.95954609189316   -0.56708836005865
H          -1.04083030007922    2.37885299375454    0.86305778038769
O          -2.66340759769554   -0.13942883226222    1.10035913908580
H          -2.55588144542137    0.81162933558557    0.87310799432806
H          -2.01224531722376   -0.77650291700219   -0.07262835994778
O           0.62997427354181   -2.56432788563296    0.38453130305265
H           0.92385468594080   -3.41638557437131    0.70940927647373
H           1.44423269547786   -2.06972344114266    0.11856611098824
O          -0.32703580213326   -0.63114962682327    2.25876321058945
H           0.03236493542336   -1.40226461062774    1.79942623739866
H           0.13515558471414    0.12919414299470    1.86438558895680
H          -1.94579959554140   -0.32349778368738    1.75282667268608
N          -1.34950715526886   -1.12973476683498   -0.87700963750311
H          -0.81148592379405   -0.27726146579501   -1.19938969244051
H          -1.86985693930051   -1.53432787325649   -1.64692985302007
H          -0.68057793382029   -1.80683210601019   -0.47832373842267
