    26
        -50.46583675  Gyration_radius:  2.48727258488 Dipole_moment: 6.431
 S           0.93233860285606    1.65910903611924   -0.60962625285805
O           1.19396087677280    0.42792405448120   -1.36915718011417
O          -0.00359848932279    2.52030041769696   -1.29751562516848
O           0.60071182871804    1.37566633551529    0.76354537011020
O           2.31373639657190    2.44583107850950   -0.58815814207964
H           2.27835069634519    2.96064879746265   -1.38740180122775
O           2.76398704883101   -0.29658443895313    0.71182157608362
H           2.42149910896896   -0.10965046243498   -0.17652580222536
H           2.40507763489424    0.42221631407373    1.24448229240863
O          -2.43889572916727    1.66493267339278   -0.88532181799582
H          -1.52165773892713    2.02069864413561   -0.95314376953420
H          -2.88426494137699    1.95597865674428   -1.68315499748202
O          -2.54384788179387   -0.80649193485489    0.01861272116822
H          -2.50673300104187    0.13152832760997   -0.29305161113191
H          -3.46419710135398   -0.99359690709691    0.20795531010419
O           1.08508026274610   -2.27402220005666    1.40522085455809
H           0.39922793356283   -2.11847110185628    0.09727606998058
H           1.86538732809470   -1.69008170229936    1.27136777975413
O          -0.72180496814584   -0.50001163241856    2.19919363216407
H          -0.25830561549937    0.27480432591787    1.83565470270187
H          -1.48310423083126   -0.62662838706297    1.61685397877655
H           0.45509898303377   -1.73204567789765    1.93806652204784
N          -0.11260036953347   -1.78439641288621   -0.81789727960756
H          -1.09151491532048   -1.55738786349032   -0.58313926615507
H          -0.06107055417235   -2.47733200356607   -1.55574989002926
H           0.37713882508907   -0.89293795679083   -1.11020737424983
