    26
        -50.46850054  Gyration_radius:  2.45635250702 Dipole_moment: 4.955
 S           1.28328712236318    0.28664604644636    1.53540438186779
O           1.82541264588472   -0.41049008989702    0.36009285494966
O           1.83321143674560    1.60766538364824    1.69530921962630
O          -0.16055289281738    0.21374236999958    1.56188385639969
O           1.78469469035031   -0.55741196548645    2.79013244628458
H           2.59256397121451   -0.12058997507591    3.04072776080912
O           0.21333732161572   -2.42809996699995    0.95147318459576
H           0.97603104547807   -1.85990683230027    0.73195007210334
H          -0.26620396653904   -1.90439189676307    1.60370659101796
O          -1.11439687277551   -2.22301405114999   -1.30398037192267
H          -1.39417443903860   -3.07926558907546   -1.62895136358935
H          -0.64603535203561   -2.38660855374163   -0.43979481600327
O          -0.13223180436153    3.00026301106822    0.56975080226065
H           0.67278975547679    2.60340092823293    0.95557984584413
H          -0.84135123725164    2.75596082717544    1.16969605518712
O          -1.00415356458953    1.87359910520937   -1.68038621621136
H          -0.05047707009149    0.75760255002662   -1.89977105183283
H          -0.62847614656664    2.44502741787598   -0.97224702552633
O          -2.27988968339003    0.11842088486695   -0.15047294331425
H          -1.61339831220876    0.17932835956831    0.55650393133084
H          -1.70401915032094    1.35701485435309   -1.21700238912507
H          -2.13672985473239   -0.74080495134222   -0.56834497219341
N           0.56286815540691   -0.15279644712494   -1.93578423150606
H           1.13678502450176   -0.19771689182084   -1.05041386872332
H           1.16487871840627   -0.16665147871023   -2.75123179559673
H          -0.07376954073528   -0.97092302899332   -1.92382994673789
