    26
        -50.45406465  Gyration_radius:  2.45699491261 Dipole_moment: 2.139
 S           0.82694253654980   -0.10063851968617    1.12358552406110
O          -0.55119062864443   -0.50188015893077    0.87413923463429
O           1.48692711925505    0.31061033322375   -0.11358945364795
O           0.87236936547335    0.98527818995767    2.11878865544991
O           1.59559433650886   -1.27296376197488    1.73718661008317
H           1.46676679997365   -2.05903081205379    1.10767505052291
O           0.10436790642155    2.27419390113541   -1.05900330056754
H           0.63656696775236    1.47668086963828   -0.79092203368778
H           0.71994066835892    2.86981455610867   -1.49146765362926
O           1.35103709833736   -1.60216773118531   -2.00940346990707
H           1.59325594360962   -0.84292854129102   -1.45047411406665
H           0.40601792883872   -1.43198266898588   -2.22381532722394
O          -2.51439776954901    1.04685352079407    1.56602895173354
H          -2.77209349837483    0.80855374132692    2.45865441448824
H          -1.86271652879523    0.35756347935083    1.27376975863170
O           1.35700842509040   -3.16504286467137    0.05351840471123
H           1.31999033753642   -2.65690087640413   -0.81470560174334
H           2.16906271837853   -3.67602283348246    0.02891404428694
O          -0.63575694644182    2.74045561943714    1.33812600395011
H           0.09667929060559    2.02097869003683    1.76745960652497
H          -0.41390766115802    2.70521818207485    0.34174514460288
H          -1.51307493141720    2.22137596541517    1.44426005463348
N          -1.22062936014023   -0.74960209208323   -1.94878560988963
H          -1.11026428451907   -0.75082052165087   -0.93597751552610
H          -2.08771038872681   -1.22533765819586   -2.16365655619225
H          -1.32078543494357    0.21774201210449   -2.23205081222209
