    26
        -50.45068684  Gyration_radius:  2.48295601032 Dipole_moment: 1.674
 S          -0.73837377828029    1.19958369148308    1.42394922567603
O          -0.20184967254152    2.19872737814087    0.52309724147876
O          -1.73641501151082    0.36144679134621    0.75654354567061
O           0.26811386742937    0.40821766924446    2.09434019358979
O          -1.51586655303943    1.99362214537958    2.54881630551547
H          -1.92753193098063    2.67782491991073    2.03261303371114
O           0.07898997572473    1.33711581656287   -1.95360266999302
H          -0.07762870170269    1.71778450110901   -1.06004558896088
H           0.93668356036803    0.90721336332107   -1.90947917910373
O           1.20208236939892   -1.80286863661125   -0.56032971409990
H           1.21855720051464   -2.16215860467917    0.35581897234714
H           1.62771859054820   -0.91154910239619   -0.47386159181080
O          -1.81293972758709   -0.24932108143501   -2.83632675562803
H          -1.10273378535847    0.41411012214877   -2.64057429795169
H          -2.64723043735725    0.21421328087282   -2.74333248427135
O           0.79419759878454   -2.21490748704102    2.02835249666964
H           0.64306286584655   -1.25856723041517    2.17234126426867
H           0.00077660903157   -2.65808584398452    2.33273335395899
O          -1.26660969217485   -1.57681532405068   -0.73587042976196
H          -1.52335210072887   -1.17179671242009   -1.64177421340458
H          -0.19388849410352   -1.69765882001782   -0.72639308328492
H          -1.47663730808091   -0.82282833199273   -0.05565218315369
N           2.27737204313210    0.57866174372571    0.07309945645665
H           1.62346000862342    0.67536124141864    0.85104264794394
H           2.37260023250607    1.50409527297570   -0.32945575522736
H           3.17744227148216    0.33857922744129    0.47395023938489
