    26
        -50.45260462  Gyration_radius:  2.47818304782 Dipole_moment: 2.182
 S           1.05820029796433   -1.03208626111099   -1.06357693668316
O           0.72472084699189   -1.56357343806035    0.25318278291387
O          -0.10610287773921   -0.87292084276580   -1.90356306609286
O           1.88813670225682    0.15740828502440   -0.97297964774015
O           1.97337341838862   -2.12189984765978   -1.75786898886573
H           1.36414034082027   -2.83099307833341   -1.93409455521686
O           1.01069621900002   -0.26185200007049    2.53191160899990
H           1.00059444310227   -0.91856682666489    1.80079039603114
H           0.08499264139777   -0.02203450856384    2.65624326630472
O          -0.81036162642437    1.32170116309378   -0.46853232033269
H          -1.22390737752461    0.77551917224553    0.23713158962127
H          -0.50460319517944    0.68319624251546   -1.13086521751335
O           0.75099085661458    3.16122258979731    0.48538677773415
H           0.07904759210608    2.52161187191085    0.11307666475593
H           1.06352646097682    3.67946829007538   -0.25865628548957
O          -1.62361401548622   -0.59914075002916    1.20223780981908
H          -2.34419048759221   -0.88179350847002    0.60421156785084
H          -0.85657263245571   -1.11435928678136    0.89547298048056
O           2.36732076777887    1.35757259364856    1.15024015068687
H           1.86394869646286    0.76840151886048    1.84017661806839
H           2.28686426470793    0.81984624255979    0.26053168669336
H           1.76233645949447    2.18903480620735    0.96291065407188
N          -2.93770452519338   -1.28707666331297   -1.09751456441716
H          -2.01882650474010   -1.21744571307207   -1.53213106892270
H          -3.50555913747361   -0.54441351274267   -1.48744396677847
H          -3.34744762826392   -2.16682652830630   -1.38627791598215
