    26
        -50.45772505  Gyration_radius:  2.48314054627 Dipole_moment: 5.323
 S           0.23693745757144   -0.48632931569685    1.52280925427659
O           0.60879334348991   -1.09655149684101    0.22974602767283
O          -0.38701330939086    0.82483015592766    1.25760355858709
O          -0.59911366102175   -1.36500475695368    2.29485642617216
O           1.53774180685699   -0.21591861590920    2.30082569230897
H           1.91956575599053    0.61431799072882    1.84985040624384
O          -2.75718330425446   -2.41024788780200    1.20162221059255
H          -2.79549919382984   -3.31869981641247    1.50509090814198
H          -2.02262260838712   -1.99132012486838    1.70617374434543
O           1.97268525643923    0.28725904504129   -1.45050405913291
H           1.47222018516207   -0.25037083889665   -0.77367531985635
H           2.51027805853321   -0.34283971830847   -1.93314332465740
O          -0.11967074304890    1.52160966682249   -2.54865947186154
H           0.70679886855206    1.13496220704753   -2.17522582995645
H          -0.29579127972472    1.05845582773576   -3.36993111274242
O          -1.63021084872536   -1.59704021013501   -1.03478070321339
H          -0.72624695368061   -1.58612852988520   -0.63878520523876
H          -2.19683692083964   -1.99770300379721   -0.33166560511088
O          -1.84252052266354    0.86089740755566   -0.73775661509040
H          -1.23216005001029    1.23649236284169   -1.45297907129774
H          -1.88312963208607   -0.19626421337457   -0.93057021925879
H          -1.27958816716616    0.90574480143820    0.16493890419393
N           2.21819638490491    1.90079996090572    0.99710689879844
H           2.42192657769283    1.61544074548719    0.04492755347516
H           2.88120800734854    2.60747816228424    1.28500316456853
H           1.28123551202635    2.28613021681750    1.01712175932872
