    26
        -50.46933044  Gyration_radius:  2.44175499651 Dipole_moment: 6.753
 S           0.27414916818267    1.03854262182034    1.58617992121275
O           0.16353667588928   -0.03830830108264    2.55355520557560
O           1.41044464988662    0.80823706267003    0.69153952490496
O          -0.94784422208142    1.30316753297231    0.86556154762808
O           0.60990714588787    2.34494882992310    2.40049774883262
H           1.32148674190094    2.04028849265809    2.95189066344024
O          -1.39115817316823    2.66758744529425   -1.41717857770825
H          -1.28133353100584    2.32861853035598   -0.51026825378497
H          -2.16885739488001    2.22877952564269   -1.76822502552639
O           0.07891514161769   -1.06055779708712   -2.32954434727390
H           0.89367084402358   -1.50954720511334   -1.20526482184242
H          -0.78678791211142   -0.99612358463868   -1.86774509969296
O          -0.56153110742498   -2.31046247100165    1.54864905488369
H          -0.83346374238728   -2.90505757541208    2.24924068949344
H          -0.34317387164800   -1.44699686973907    1.98871052358332
O          -1.85988824186476   -0.82954816818738   -0.50234484318988
H          -1.68461071728433   -1.53525026469725    0.13285035757162
H          -1.63795841018950   -0.00643374583993   -0.02933661677581
O           0.94711090473753    1.39101868174437   -1.96445239671021
H           1.22322471558214    1.31453475848482   -1.03670774043891
H           0.40618644637342   -0.12407835450485   -2.39425727397804
H           0.16991615600838    1.98229078967891   -1.94904247313973
N           1.40489828054896   -1.66602793972363   -0.23051285632692
H           2.29492944727587   -2.13913723733469   -0.33509524790266
H           0.76750660872556   -2.17995913922651    0.39936682707992
H           1.53072438740179   -0.70052563766542    0.17193352008591
