    26
        -50.46933040  Gyration_radius:  2.44177471196 Dipole_moment: 6.755
 S          -1.02251141489939    1.34209608076409    0.90750318453727
O          -0.16150653552917    1.50231015972963    2.06538581440376
O          -0.30807615328403    1.71068500935802   -0.31657947780323
O          -1.63775707770735    0.04007186409855    0.81382475928555
O          -2.19341648882678    2.38423773007218    1.06715813473216
H          -1.70874112900701    3.17543909748827    1.27284447420921
O           1.78297830713602   -0.20056302952197    2.19840750202450
H           2.16566248741873   -0.19083718307259    3.07692235094644
H           1.01762565525410    0.43228270103266    2.22370475515087
O           0.14599402740768   -1.97373148729499    0.69426668664693
H           0.79980976332608   -1.66948237114194    1.33625459565477
H          -0.58391435078644   -1.33040246984429    0.75646335009204
O          -2.83330810620037   -1.20377718869844   -1.25811868447493
H          -2.67189455939725   -2.12860654701931   -1.06007517817307
H          -2.57076732635084   -0.71118486088195   -0.45946654905919
O           1.24502906369219   -1.46648545105969   -1.69030546596750
H           1.84326911458461   -0.31948927192329   -1.01495018650000
H           0.82565331101286   -1.89435559196219   -0.91064162546824
O          -0.74967657625801    0.05095361232763   -2.47506913963907
H          -0.67196104785042    0.75456125352883   -1.81046519490387
H           0.50206536573610   -1.00066858048200   -2.15860475210999
H          -1.58032751778210   -0.41353918629586   -2.25565810408982
N           2.07547421856478    0.57768325297534   -0.40088386391663
H           1.18581261340180    1.14196270373946   -0.39120439393848
H           2.84650824720170    1.11429043311152   -0.78099941221694
H           2.25797609914050    0.27654930096789    0.57028643057603
