    26
        -50.46516746  Gyration_radius:  2.53920654321 Dipole_moment: 5.797
 S          -0.15893836514688   -0.59843929536811    0.00764899327002
O          -0.31560507355634   -1.63084480141534    0.99938952065558
O          -0.56191369288006   -1.01914138127226   -1.34413592778641
O          -1.14079839600608    0.57646387069723    0.31676198578364
O           1.18603365483306   -0.03091627148370   -0.01924257125979
O          -1.89319811588108   -1.42861730270946    3.12993227439179
H          -1.30818517580292   -1.62562560956274    2.36866580598711
H          -2.75413951370724   -1.78225796120790    2.90319829492356
O           1.52268367125458   -1.08487949501272   -3.06086585274737
H           2.17316232699721   -1.72444510861297   -2.76701630335027
H           0.75259034274594   -1.19327238566149   -2.46802611068066
O           1.51227928717378   -0.10488269639386    2.62146597308770
H           1.27106078544603   -1.01826791495996    2.79894991142928
H           1.56083406605494   -0.04078005613687    1.64850216864534
O           1.73760149848688    1.42699829104012   -2.13106011515092
H           0.25980127478884    1.56182402422404   -2.29613739170105
H           1.71372030385779    1.02521792776906   -1.23132278188847
H           1.91189301086541    0.65268351672732   -2.70444681660084
O          -0.88218137969983    1.04290332319148    2.77455791606782
H          -1.05716329859707    0.81976743081403    1.31914538189545
H          -1.37775324527633    0.28206619204061    3.13801282037155
H           0.06599803419294    0.79728025792847    2.88800179995473
N          -0.82265684308168    1.36194169287740   -2.26385792249277
H          -1.25643730457102    1.87658721909489   -1.49904807875670
H          -0.85399084889108    0.32271121819188   -1.97838722768666
H          -1.28469699359840    1.53592530520229   -3.15068575637051
