    26
        -50.45760681  Gyration_radius:  2.49482513023 Dipole_moment: 2.737
 S           0.18889551546936   -1.39882751224792    0.18402596021697
O          -1.01606288097781   -0.80397798962845    0.78819271362777
O           0.13274111327057   -1.30650574925404   -1.26203658844874
O           1.39249040056101   -0.78452459440157    0.73140297364070
O           0.21917955749823   -2.89109398716332    0.59885814383991
H          -0.61562472290813   -3.22823050820491    0.17427534348768
O           1.57956201525989    1.44343589822763    2.14013074620125
H           2.04719058534406    1.94126062201394    1.45889130151398
H           1.62738663490503    0.51072492446684    1.83856825812180
O          -1.23865205675445    2.72276186529112   -0.38526606854055
H          -0.64286283582881    2.20577072237770   -1.01016656204866
H          -2.12060981869540    2.67625180883482   -0.75755508180010
O           0.28749223835354    1.27507659009112   -1.88223171651462
H           0.14981915129156    0.31237135630780   -1.75888424017416
H           1.19669852076024    1.43254344550501   -1.57141081863838
O           2.68269623472911    1.13555712050407   -0.56757757232108
H           3.45004122625287    0.82288162932530   -1.04854145256197
H           2.27809695392162    0.34252219126956   -0.15228618507416
O          -0.93077483367856    1.45752186595013    1.77596927757934
H          -1.00554460205110    0.45952290297534    1.41388397353250
H           0.06497887533010    1.56257822445701    2.02412747117707
H          -1.09518964516315    2.04570022268781    0.93599947560345
N          -1.98612056975135   -3.11057067661320   -0.76107857014026
H          -2.52575424761705   -3.78927957570698   -1.28308409318421
H          -1.50234730593370   -2.49519812689486   -1.40901094126909
H          -2.61772550362739   -2.53827267017398   -0.21519573778045
