    26
        -50.45618403  Gyration_radius:  2.41755189874 Dipole_moment: 5.391
 S           1.36131737129511    1.18011320551111    0.41029711591194
O           1.24692319428292    0.20218378338033    1.48487172711747
O           1.70504442272441    0.52431526021465   -0.85156082928870
O           0.21219796381149    2.04132067206610    0.30709639307017
O           2.60162969938848    2.09581555546632    0.75331499772515
H           3.32699732496893    1.52458388927172    0.52708249022338
O          -0.94564388915094   -2.09251036936237   -0.61078553716380
H          -1.26427229641901   -1.63295637701000    0.18942643864801
H          -0.01639510312009   -2.37325220988761   -0.37597324107753
O          -2.61081069223123    1.58243523365069    0.79842931292437
H          -2.32472049891490    0.71401567474855    1.12257576809004
H          -1.86716590136000    2.16508340189801    0.98972231162991
O          -1.57187244362881    1.81497586098369   -1.65005038374331
H          -2.27085005710696    1.66776048159974   -0.97715831575681
H          -0.83546265544305    2.16400397826634   -1.10885630137911
O          -1.21768402839692   -0.64338884008500    1.66196634581696
H          -1.33003690438453   -1.01632438738827    2.53800904288788
H          -0.29835002666082   -0.27909118604223    1.63224785206253
O          -0.29423040376539   -0.26924733394322   -2.17929607785544
H           0.57410313557868    0.02986923226820   -1.72960977862429
H          -0.65362879737532   -1.07652590562469   -1.57532158929026
H          -0.93179951053826    0.56002577359559   -2.06033874642684
N           1.59719243265138   -2.29776706133262    0.10177771639009
H           2.17870633817683   -2.10393741033996   -0.70420685391394
H           2.03933864906300   -3.03277300257610    0.63887681512315
H           1.58947267653554   -1.44872790935429    0.66746333688236
