    26
        -50.46516747  Gyration_radius:  2.53909309628 Dipole_moment: 5.799
 S           0.32861381093177    0.37358530882863    0.36953136836813
O           0.15341480784642    0.58935293871319   -1.16756414196627
O          -0.17606721115602   -0.96318390918362    0.67009132986644
O           1.71319633338337    0.54700190802975    0.72558646133377
O          -0.55768767597436    1.39544202085496    0.94997429441950
O           3.66414729652656    0.95908201784626   -1.03296549328076
H           3.02579691055271    0.84514775976294   -0.29798646540823
H           3.77301445101768    1.90381608327525   -1.14783719973318
O           2.06953781018443   -2.21093511802600   -0.02631859651356
H           1.19875839979698   -1.90622714286150    0.29322794862523
H           2.71134032890579   -1.70440941277691    0.47920782782754
O          -2.30136400766635    0.35123021307683    2.72907753006093
H          -1.82881649019099   -0.03640236233726    3.46727378649161
H          -1.62640039470964    0.80684688164703    2.18767590181453
O          -2.78829126833237   -1.21052162484391    0.59735966290804
H          -2.77759938295411    0.02188732500215   -0.24526854151313
H          -1.81591942075416   -1.36999730777764    0.57484790217836
H          -2.91854953390040   -0.81910433371862    1.48533237097872
O           1.98141220027494   -0.75583423173827   -2.25092810590766
H           2.06092670283606   -1.48409410760675   -1.59093934199814
H           0.87568017026325    0.03685444145972   -1.66173925421288
H           2.74414266749630   -0.17241267634485   -2.06527614711226
N          -2.49022464432192    0.98841022805161   -0.68814525406374
H          -1.72458071970591    1.33074548393888   -0.01064983328586
H          -3.26631724097721    1.63867308616429   -0.75882169870502
H          -2.02816389937485    0.84504649056717   -1.58474628117127
