    26
        -50.46555041  Gyration_radius:  2.45489613772 Dipole_moment: 6.214
 S          -0.85047922016164    1.54136081617639   -1.41332426399547
O          -0.91324971245985    0.56500494258547   -2.49122906758850
O          -1.89266569419318    1.33395518643715   -0.43185172411011
O           0.47979017941858    1.62562576768703   -0.83069589910162
O          -1.12524801522309    2.95732457159925   -2.06817679576415
H          -2.04899988770114    2.86729521477174   -2.27224876355067
O           0.90763524520711    1.60996713779394    1.79228361839112
H           0.79575642613227    1.83901440800148    0.84535659820271
H           1.52595855929526    0.26979915755272    1.62970470806811
O          -0.54120549968995   -1.75824926530668   -1.52637512137990
H          -1.01149062680438   -2.35737190515181   -2.10865760268564
H          -0.73219119461567   -0.84027349321379   -1.88350799849851
O           1.96008219531075   -0.52007771388620   -1.25682324689315
H           1.27827370071301   -1.12830003903969   -1.57667390264081
H           1.52127055745305    0.36031781217672   -1.25535158271400
O          -0.59294381625282   -2.05482122284127    1.13183544707670
H          -0.62470933609458   -1.91717537891413    0.15710982568039
H          -1.15967554409785   -2.80311250907398    1.32301578639445
O          -1.47042182756505    0.50361448630240    2.05338088939851
H          -1.76173264945137    0.87169772788557    1.19355823293813
H          -1.27942566041820   -0.42624109388468    1.86911330525773
H          -0.00208906852082    1.34965739250520    2.08301536065506
N           1.83522158617824   -0.74904131437716    1.35444485507899
H           2.02353026517199   -0.71328867672027    0.30251481753207
H           1.03092101042017   -1.37268946365392    1.50338808855580
H           2.64808800795186   -1.05399255541226    1.87619442569352
