    26
        -50.46411407  Gyration_radius:  2.39257234614 Dipole_moment: 2.410
 S          -0.31793781255570    0.99650822407202    1.00135538156668
O           0.87355988442860    0.12870353339474    0.97221864281961
O          -0.76578694846523    1.25783187267454   -0.37072985333566
O          -1.37150649196241    0.43505230502534    1.81593364661874
O           0.11291792268153    2.34195068507506    1.62722933768357
H           0.96848164753262    2.55125431035326    1.15180288776699
O           0.26053291705990   -2.39395149964889    0.55532548543912
H           0.57470297721188   -1.50888547424548    0.86032415569005
H          -0.67227498947025   -2.44143819791765    0.83488753328361
O           0.08993562759030   -1.83083447324701   -1.87991491647748
H           0.22578884932600   -2.21035373617992   -0.90228504099132
H           0.70452458085704   -1.00366831110439   -1.91390463203813
O           1.36250012338220    0.35107573324447   -1.56221844543854
H           0.56456056808755    0.91437285344094   -1.54422712159173
H           1.47809484768928    0.18729884904127   -0.59707282135623
O          -2.35222399225560   -1.81139984198383    1.03749213622534
H          -3.05452953248114   -2.09152235558726    1.62611190793919
H          -2.02454154674135   -0.94014083654928    1.39419176318131
O          -2.10395851668651   -0.71987193853083   -1.43882497938501
H          -1.73817786118753    0.12890416335151   -1.08453016969380
H          -0.89062584283293   -1.41964103647998   -1.83030715485258
H          -2.43948586954601   -1.19453063431333   -0.65589541334651
N           2.39167364936570    2.60174491345678    0.33990486400887
H           2.88629342112330    1.82634954460865    0.76373274841202
H           2.94680759430201    3.44084555362516    0.44801258849523
H           2.29067481354693    2.40434578440743   -0.64861252063027
