    26
        -50.46900306  Gyration_radius:  2.44552224252 Dipole_moment: 4.371
 S          -0.55884081720848   -1.32161080962848    1.37415481078160
O          -0.68355233208519   -1.87881787089101    0.02219944371139
O           0.60472398274410   -1.82956956722729    2.06155576877725
O          -0.66382908673170    0.12049429928184    1.36941012495782
O          -1.82604702675116   -1.84813568914566    2.17184827900913
H          -1.57995029388092   -2.73291564032873    2.42229048241728
O          -0.00757997470510    2.28501306435469   -0.14618234515742
H          -0.30241504688641    1.59503230557006    0.47368736224948
H           0.92371329543756    2.09819798399371   -0.31613226840961
O           2.06362863067855    0.35205716813913    2.01304941768598
H           1.37269424922654    0.96158764711762    2.28881726576780
H           1.64780580440129   -0.53462258361906    2.09142847963180
O          -2.75285343341339   -0.22367540465876   -0.43089800757009
H          -2.61100415575250    0.26519961795006    0.38614953602815
H          -2.15095394834514   -0.98285898667579   -0.35537181986193
O          -1.32562402198415    1.21275938438026   -2.19882114400967
H          -0.95545650893318    1.85405825436000   -1.55098801710495
H          -2.03854229649252    0.74942073125313   -1.70474798044748
O           2.46206133774621    0.86131995031507   -0.51494135683345
H           2.35034536647626    0.64012614338310    0.45288332055606
H           3.40327163006890    0.97428507016923   -0.65301546083702
N           0.54807184965096   -0.53593421430071   -1.87032015431362
H           0.83301009634871   -1.08663305516735   -2.67232032003140
H          -0.22016619027721    0.19772967363417   -2.13572080087689
H           0.11109058391717   -1.15251379367238   -1.13190866374894
H           1.35639830674585   -0.03999368859730   -1.44610595237777
