    26
        -50.46516743  Gyration_radius:  2.53922851174 Dipole_moment: 5.798
 S           0.13340088979461   -0.60323742220096   -0.04798891563256
O          -0.39243476958708   -1.83967383518242    0.47032209714821
O          -0.84866099739420    0.15961431489871   -0.81330513599812
O           0.59159823028261    0.30669769009227    1.13616075695000
O           1.36828469396971   -0.77423407026797   -0.83054291047654
O          -0.71234261485736   -2.35708404428441    3.05872056652201
H           0.08224924630286   -2.78296015912242    3.38250249389869
H          -0.60874003254713   -2.28878808423276    2.08650931537520
O           1.03115341192215   -0.13521934294600   -3.43329774693525
H           1.18898160495087   -0.48994586842142   -2.53578951289071
H           0.38273039514806   -0.71522910004556   -3.83534728673506
O          -2.89171679872771   -0.44130791921623    0.78324471050178
H          -2.80193029858444   -1.39747277579817    0.82468261351748
H          -2.26312278488335   -0.15816295909099    0.09190861612191
O           0.14072288505247    2.11266175993561   -2.26128546181199
H           0.43647729102505    1.51977558988967   -2.98222598872798
H          -0.44288889718622    1.52470617527176   -1.72727020950565
H           1.32342022292887    2.04853661706037   -1.35266250224059
O          -1.29860899853538    0.25898372802396    2.79452322645142
H          -0.16549673641204    0.33498520474315    1.84109088269980
H          -2.05666685972675    0.14490921235836    2.17434529708013
H          -1.15817565949536   -0.63052632071420    3.17606815892172
N           2.09651623965751    1.68029157469091   -0.66002075839073
H           3.03347972239175    1.97082310251542   -0.92046030534987
H           1.96401720683544    0.61192974895937   -0.71809067866874
H           1.86775340767354    1.93992717306832    0.29820868819811
