    26
        -50.46516757  Gyration_radius:  2.53892940054 Dipole_moment: 5.801
 S           0.54793589783547   -0.16357972020513    0.23786089873874
O          -0.19112075049388   -0.82389297245001   -0.83435987044442
O           1.02634830430682   -1.07970165214511    1.24073972186249
O           1.60485145293281    0.69283811707733   -0.32458753955500
O          -0.42661174936971    0.86592072482095    0.89338586849741
O          -1.38642394493753   -2.58025156088679    0.76923703989509
H          -1.01077161867493   -2.03339687312868    0.05301970788992
H          -0.62528751892665   -2.92204565493300    1.24657313988414
O           2.03752248298967    0.19604579785258   -2.94445617430140
H           2.01191299392234    0.34346811457980   -1.97812137041583
H           2.33176665385695   -0.70805994043957   -3.06491226689764
O           0.18628641522312   -1.10620873717544    3.76318598349064
H           0.76246288563688   -0.54165838572417    4.27969846956576
H           0.59094809213080   -1.16730390314578    2.87263546069998
O          -0.61077742629771    0.64978054234822   -2.96469796159822
H           0.28875127609196    0.50681191588258   -3.32402924114899
H          -0.66335308857356   -0.02444891769126   -2.24744059616190
H          -0.36678934008103    1.82460168320451   -2.07694967648644
O          -1.99712962311434   -0.49780946122150    2.30715732025834
H          -1.10906136271017    0.34855451980947    1.47434540440089
H          -2.01613117147750   -1.32769984427499    1.77505721478287
H          -1.40518040166964   -0.70171638262853    3.05854106362679
N           0.00238006945109    2.46483360568558   -1.26024964651507
H          -0.70851528461572    2.56332792812878   -0.53720379436117
H           0.34355156814895    3.36410950217687   -1.58435696161742
H           0.78243516841731    1.85748154448355   -0.83007217409021
