    26
        -50.46159696  Gyration_radius:  2.51992064812 Dipole_moment: 2.892
 S          -0.71401916197021    0.69397535921986    1.82323179385944
O          -1.50131229189505   -0.22581562065077    1.00486647567341
O           0.34251924425666    0.00032401180401    2.53120268502642
O          -0.24275006411732    1.82772019205336    1.05143122210856
O          -1.68845850677390    1.27545760579527    2.92223755896145
H          -1.74592823230008    0.53679814537666    3.51828667263573
O           2.24650529943496    1.72125676436911    0.16468047891878
H           1.35427950371061    1.80553078484155    0.57271944056120
H           2.81631162791615    2.32043102822444    0.64913132273344
O           2.25117696392853   -0.89118084590383    0.92517735868975
H           1.68276113162094   -0.64719785193582    1.68733430420433
H           2.47920889127430   -0.03157155954050    0.52402318530466
O          -0.43379569690133   -0.59740902588074   -2.68246810383492
H          -0.36664203244032    0.32765693289955   -2.33062972569737
H          -0.12063341171627   -0.56896294262629   -3.58695938539722
O          -2.63898504343339   -1.77098685286975   -1.11535857440246
H          -2.59430069864663   -1.17617721618188   -0.35814318877471
H          -2.21035340266119   -1.30509292712485   -1.84111912517766
O          -0.04724381829733    1.78454260108086   -1.63666122038857
H          -0.38637516754591    1.84722512694774   -0.72461919050972
H           0.90303044201269    1.91787840754451   -1.54307281625707
N           0.13750045038533   -1.79326799688922   -0.32158304186706
H           1.09690098813138   -1.55520509442086    0.08139729305133
H          -0.56715552119258   -1.23467805300541    0.24120631161747
H           0.03427165415194   -1.48067519439643   -1.30865810223509
H          -0.08651314693074   -2.78057576872828   -0.24765360880417
