    26
        -50.46542148  Gyration_radius:  2.54417619477 Dipole_moment: 5.381
 S          -0.46100581600277   -0.20874041428106    1.62086257778710
O           0.86169758627930    0.11069003955199    2.10194268530759
O          -1.01310197214233    0.89413185241358    0.80208517726974
O          -0.50640284016590   -1.46615262036152    0.89304235563188
O          -1.42832047948608   -0.38400753752754    2.83776351062520
H          -1.53640800859991    0.51844872428311    3.19160974161472
O          -1.74735957163542    2.25721885603491    2.93259392836513
H          -1.45909659428318    1.98953182607843    2.03732671278663
H          -2.65506303670643    2.55781301195299    2.85044010065022
O           1.45776921995301    1.63351831513715    0.10076549447183
H           1.55631069592559    1.14741273105357    0.95130194202089
H           0.49329773223077    1.73976232235900    0.07028888773658
O          -0.25896007471841   -0.23575163311540   -3.16670835124784
H          -0.57876916516786    0.53321912771943   -3.64043320221504
H          -0.94236327313876   -0.42415750773004   -2.46509496693934
O          -1.94333299712584   -0.57557865708633   -1.18770716542796
H          -1.66698813421576   -1.34546248181900   -0.67063913955407
H          -1.75059642682322    0.15082125617922   -0.56279822663187
O           1.65659709304935   -2.41351214164711   -0.19262974934432
H           0.90152263283098   -2.07108069932734    0.34870408449632
H           1.35737881748443   -3.25173044021246   -0.55024719348466
N           1.95126931674969   -0.23091754352407   -1.67831776446923
H           1.81952019263700    0.56794414088426   -0.97464723772995
H           1.91787699017864   -1.13555307042002   -1.13367045433967
H           1.13941672230617   -0.21888186261045   -2.34905374130063
H           2.83511139063491   -0.13898560400129   -2.16678000603425
