    26
        -50.46497764  Gyration_radius:  2.61914238015 Dipole_moment: 3.031
 S           1.32964708529158   -1.60490791992426   -0.29189133380269
O          -0.12564431585436   -1.47340444495938   -0.22443920382367
O           1.86057957600659   -1.40576494357312   -1.61747115120732
O           1.97522329882601   -0.78544593839332    0.71769477838993
O           1.61252300059005   -3.12115063240845    0.08533225277462
H           2.47663446717192   -3.24273751260796   -0.29241122284564
O           1.57217950000748    1.75850431671115    0.59140698396638
H           1.77817650067574    0.78906568607670    0.67828540733524
H           2.16057284760118    2.21057037102849    1.19734932988961
O           1.36748599200819    1.16860102786090   -2.17876639443448
H           1.62298745044063    1.56797227591611   -1.33691843501876
H           1.58001611373622    0.21766030635331   -2.09705278279304
O          -2.64218820259465    0.48269970868397    2.13004168596910
H          -2.24592958344776   -0.41814432694260    2.17341721664047
H          -2.53235137612205    0.86163318657838    3.00321300914802
O          -1.32729030254120   -1.85268577361974    2.10396915701631
H          -0.79749534197247   -1.76984878708214    1.28098141773255
H          -1.76826835134563   -2.70164335778755    2.04502232419637
O          -1.20755121678847    1.69500564025520   -2.52079328972936
H          -0.22442100873005    1.58421191385027   -2.53668040521275
H          -1.55336467528669    1.04536030461075   -3.13447744770366
N          -1.00109432999956    1.02033479265129    0.05169475406692
H          -1.74445686363581    1.01743322081820    0.77988152314071
H          -0.69152782245274    0.02663061200545   -0.09300552943807
H          -1.30750388449287    1.38766604253316   -0.87956689974098
H          -0.16693856710031    1.54238426136637    0.36518426548796
