    26
        -50.46516751  Gyration_radius:  2.53897156119 Dipole_moment: 5.799
 S          -0.32081661703670    0.09773053474544    0.52203157437825
O          -0.96074234665945   -0.33679648810853   -0.83500979932093
O          -0.86117768281673   -0.70519432209999    1.58841626060520
O           1.12469306416147   -0.04587128896946    0.37412346882369
O          -0.68450497963185    1.52070313202684    0.61866029830011
O           1.46280484017908    3.10048722218044    1.05481001087016
H           1.87438880278767    2.87616352415451    1.89074380237240
H           0.63679053554323    2.57871953755730    1.01364628231791
O           1.14516768548561   -2.65495575499766    0.90006238330715
H           0.63901129903837   -2.66966650068796    1.71713825726996
H           1.30917884700089   -1.70927146765053    0.72124158411030
O          -2.52495611235342   -2.74652459544626    1.22201562191265
H          -3.42317395463037   -2.41815103548052    1.27647686813948
H          -1.94506162782776   -1.99849408079642    1.47656547741356
O          -0.83058756385483   -2.84822900296109   -0.86985163240454
H          -0.91333358764733   -1.36815698347592   -0.90589002797696
H          -0.00671745392297   -2.97620293556979   -0.34338089835922
H          -1.55453393098036   -3.05721816617145   -0.24638713384282
O           2.27520863684062    1.76874399614024   -1.13310331904597
H           2.04748604863975    0.94808524649996   -0.63685168781917
H           0.91937415294432    1.99750952989642   -1.71434311010498
H           2.28417333967456    2.44751570084414   -0.42751664398583
N          -0.17326112619157    2.06219168355646   -1.83677788891843
H          -0.52209503637195    1.25236013534348   -2.34706387017119
H          -0.47422573263637    2.93594224207829   -2.25646678981436
H          -0.52308950973066    1.94858014738288   -0.82328909804504
