    26
        -50.47523129  Gyration_radius:  2.42136585093 Dipole_moment: 2.931
 S           0.05568457645029   -0.37712786759293   -1.82241098081530
O          -0.06894050249262    0.91757474438924   -2.46015432095114
O           1.27446541098143   -0.47396238282094   -1.02961242818485
O          -1.12044795636867   -0.76189003891458   -1.06528106754785
O           0.18896364971128   -1.44156965936054   -2.98069214892790
H           0.89433269282858   -1.05716510955740   -3.48804005160581
O           1.77334678835576    1.71579476571277    0.43258192005010
H           1.77525721891179    0.95101128315852   -0.17837082969567
H           1.08372547408154    2.30656221323846    0.08727203370751
O           1.14945139756463   -1.97490789271430    1.18996134924292
H           1.35128755623066   -1.54349497219593    0.33535881288956
H           0.38121386717835   -2.54650007049502    0.99728535784341
O          -0.53213291502150    2.74047999911587   -0.67983337360916
H          -0.78319764340999    3.55233318851914   -1.12319691753782
H          -0.38966321693282    2.07012993829227   -1.39803455376589
O          -1.14413479623535   -3.05500329760843    0.26733009065917
H          -2.01960163362628   -3.12517070141403    0.65088481285333
H          -1.17124997988721   -2.28074170980199   -0.33216551765547
O          -1.77104566089393    0.88207107025685    0.92440962735689
H          -1.52008575158438    1.71617171333879    0.49321608677025
H          -1.68788244783268    0.21748731346634    0.21015054407292
N           0.45318706653734    0.31648111671345    2.23447870006244
H           1.09567537128782    0.95472219979535    1.68063337345392
H           0.72385753821505   -0.68136572923287    1.95081581578411
H           0.53059163417914    0.46422712477514    3.23347287953745
H          -0.52265775822806    0.51385275093850    1.86994078601382
