    26
        -50.47039502  Gyration_radius:  2.53264186522 Dipole_moment: 1.352
 S          -0.66448107151392    1.73178634379934    0.40607328839765
O          -0.68993373784709    2.03825692700159   -1.01184906431923
O          -1.80016784963172    0.97610443269848    0.87482276290442
O           0.59897120710854    1.08987215409506    0.78978823118877
O          -0.69754207995773    3.12628193774700    1.15886578226126
H          -0.27160500974418    3.74431241125783    0.57126846384104
O          -1.99573902948837   -0.21828146225921   -1.56951461481586
H          -1.58320652221906    0.66139887297237   -1.65836031571140
H          -2.55790909624567   -0.12144344096706   -0.79193272781734
O           2.31291397227509   -1.13578205876223   -2.08587446520127
H           3.22478591069190   -1.37573930125231   -1.91717543091438
H           2.26461833892632   -0.15420834481463   -2.00279152205343
O           1.95957976564733    1.45005796341266   -1.49236612347998
H           1.69825437344629    1.35893631248700   -0.55795678007643
H           1.16162815842125    1.79600974590215   -1.91023837541010
O          -0.65509101810268   -0.46462057689508    2.79987830037787
H          -1.23284854183894    0.04215507217871    2.19482186976854
H           0.19342980623509   -0.01546508384663    2.74511470323987
O          -0.43551157942582   -2.85440039286504    1.64795293551959
H          -1.26093936496221   -3.32763567840377    1.76008749647069
H          -0.50719628530257   -2.04099245290133    2.20493633589804
N           0.19194740495618   -1.28440103250972   -0.43643011372533
H           0.00424678312549   -2.06380472740781    0.23321160261376
H           0.98954216738450   -1.47377170455945   -1.08099392802075
H          -0.67108341723503   -1.05320470711033   -0.98815585578429
H           0.42333670528224   -0.43142120897733    0.11681755484386
