    26
        -50.47523147  Gyration_radius:  2.42137008776 Dipole_moment: 2.918
 S           1.29455372936421    1.05816976081171   -0.81664785697293
O           0.69635882023910    1.45063506202387   -2.07631734807887
O           0.55129874777275    1.58273095480345    0.32156123365668
O           1.52338274337793   -0.37026982400482   -0.70793933040559
O           2.72335553841774    1.72793430940820   -0.76604869304695
H           2.49843587838056    2.62957080034628   -0.96397380320386
O          -0.65734750694804   -1.88561767488302   -0.88991837852039
H          -1.13330126814966   -1.35202616296455   -1.54816746622082
H           0.22905427134602   -1.47138069296905   -0.85262611342203
O          -2.10567284186611    1.35626387530056    0.05621315403589
H          -2.15465631241297    1.05300189630702   -0.86548921029649
H          -1.17542900637720    1.63597933472905    0.17725072167731
O           0.49893726721518    0.05569555817068    2.52614882059432
H           0.58486980709737    0.75386385050059    1.84610951294530
H           1.28214298321369   -0.51193320470487    2.39117167713177
O          -1.56338298791160    0.22726498611350   -2.39980406505765
H          -0.68815428407139    0.69079042812854   -2.33237399408790
H          -1.86330977368176    0.36038663127964   -3.30040011133135
O           2.55185491337287   -1.37710794639508    1.52003364795210
H           2.29863125566133   -0.98011586516228    0.66109228804931
H           2.66847757803292   -2.31414781909523    1.35593414016899
N          -1.63611432228376   -0.88947260921621    1.35367625814352
H          -0.79193870137673   -0.60321668512375    1.94934691097441
H          -2.33348846871188   -1.38757792784394    1.89343375124676
H          -2.01301183426130    0.01315545892491    0.94116284640493
H          -1.28554624543683   -1.45257648445698    0.52657139765488
