    26
        -50.47441267  Gyration_radius:  2.41119069018 Dipole_moment: 2.737
 S           0.18594042433670   -0.94925771601645   -1.40981957287609
O           0.00981084966211   -1.55907228968172   -0.08014747134768
O          -0.76853267993404    0.15927962240107   -1.54930300487373
O           1.54602262453370   -0.54497233559863   -1.63159919720809
O          -0.17360031652433   -2.03484312561681   -2.46230800923177
H          -1.12662428550596   -2.19439993990274   -2.32236244626833
O          -2.04809368171435   -0.25258656000624    0.96285738630075
H          -2.21856570723589    0.35957314846892    0.24064696113111
H          -1.32593962850636   -0.83246214740857    0.63747942926663
O           2.78152981667437    1.14443915235494   -0.01746034464538
H           2.56993394510408    0.53314894234978   -0.75269508397162
H           2.07280707294073    1.80712051768961   -0.06053442112962
O           0.22968950194052    2.21943774708356   -0.25225481673868
H           0.05149232400855    2.99604173027908   -0.78547841806144
H          -0.12151853532341    1.45392207289127   -0.76789517956299
O          -2.67852843690504   -1.68434823965312   -1.67710787671026
H          -2.89684370730712   -1.85835959151428   -0.75633969454790
H          -2.23166344295755   -0.81910000725290   -1.69640371402800
O          -0.33165138939793    1.31201010277238    2.32445246604191
H          -0.15772178115561    1.88648819727559    1.56135685365737
H          -1.10152880988302    0.76627098804123    2.05513794888339
N           1.56608854359388   -0.40142226023805    1.71559972020184
H           1.02883583623756   -1.00416528965997    1.03930251179518
H           2.22681828825749    0.19490636329450    1.12540982680407
H           0.85622732250820    0.26230012784176    2.15444024882636
H           2.05561585254924   -0.95994921022179    2.40502589829199
