    26
        -50.46904330  Gyration_radius:  2.57371611566 Dipole_moment: 2.014
 S          -1.48419614756071    1.12606807907376   -0.38240968189496
O          -1.05203446618870    1.86776327796579    0.79726541324564
O          -0.71246671814241    1.48834307977226   -1.55696627764036
O          -1.53101605564988   -0.30392124074014   -0.15820428423485
O          -2.98306126697477    1.56672443531862   -0.65316893943803
H          -2.95234574179141    2.51677975188274   -0.72179664741248
O           1.80376020913946   -2.25926994903034   -1.75458444404045
H           1.39543642652347   -3.11299889545615   -1.90693600794335
H           1.30288873507243   -1.61970608347571   -2.30705338542849
O           0.27271448543954   -0.47192610047817   -3.04308936096842
H          -0.15767323324363    0.20042736990525   -2.47137960293219
H           0.52835691426437   -0.00973749646402   -3.84297637055947
O          -1.56056944365704   -0.05704684605539    2.58184880055955
H          -1.95897850035979   -0.59979264858750    1.89199916220001
H          -1.36323080311191    0.78075298651189    2.12220677969275
O           0.79127209946191   -1.22455355578516    3.04209751960251
H          -0.12064046398916   -0.84502842346437    3.00077303352825
H           1.27307884368884   -0.68919995085321    3.67405040527360
O           1.49404190750737    1.79421932527660    0.07498228026965
H           0.65001476784713    2.00388915374955    0.52138287553849
H           1.29835371186465    1.94836865011923   -0.85560319901120
N           1.03170504921585   -0.83692038811108    0.39454545105791
H           1.11628277313343   -1.13589595760122    1.39169128805640
H           1.47921395218580   -1.48941136094964   -0.28509066408333
H           0.01474061503630   -0.76592625254785    0.16126299558023
H           1.42435235031791    0.12799907015812    0.28515286099831
