    26
        -50.46296563  Gyration_radius:  2.58465256401 Dipole_moment: 2.826
 S           0.09244770860785   -2.19695462679548   -0.61631640056199
O          -1.01007570809358   -2.46172239445085    0.28747735717356
O          -0.35286888629856   -1.73778382593382   -1.92036852621886
O           1.08280955606764   -1.29639060163881   -0.03546140743873
O           0.82607045445047   -3.58608878805994   -0.82346219287429
H           0.09747683151450   -4.18758505864412   -0.71372056548732
O           2.51648814413158    1.05557283464276   -0.14722294580425
H           2.23757935688451    0.12786100802187   -0.21106044479329
H           1.87516779187648    1.55150335929677   -0.66913572028524
O           2.06064358136377    1.55363425488091    2.48099870793333
H           2.36104452516844    1.46375558879427    1.54867579530349
H           2.75773322258744    1.18000260803617    3.02046493097163
O          -0.06125476698405    2.18567537522329   -1.02870275948000
H          -0.69059222003782    1.53650877360761   -1.41869193773556
H          -0.40247574266663    3.05934299384899   -1.22404084542967
O          -2.54192383193799   -0.37276112485438    0.87182030136531
H          -2.13256630627868   -1.25722243941660    0.75855720982099
H          -2.62759771916750   -0.03582551463191   -0.03169459335012
O          -1.84174893217316    0.33893919772016   -1.78025049793169
H          -1.26387947327476   -0.47699628084481   -1.83271994462997
H          -2.31594936422570    0.36223632844098   -2.61337275408500
N          -0.14704002237506    0.65088546385420    1.25248241715933
H          -0.10741105230119    1.39909472485973    0.53712293691974
H          -1.14831196761082    0.36159863629293    1.39457591850969
H           0.35254419508731   -0.17905830606943    0.83415992279589
H           0.38369062570626    0.96177779383229    2.07988604814019
