    26
        -50.46992758  Gyration_radius:  2.54119662644 Dipole_moment: 3.586
 S           0.68706483345519   -1.24496915968593   -0.61527496265292
O          -0.37421970644571   -0.33333022286992   -1.06838116215121
O           1.94869701557707   -0.90847345900793   -1.25600060189998
O           0.76795984564974   -1.27317094911642    0.83009295500385
O           0.27040258079742   -2.67951128351887   -1.07243031284652
H           0.26445316717112   -2.59794982280850   -2.04621277266225
O          -2.73120840780911   -0.33900869714492    0.12039417677188
H          -3.20240081553666    0.32069141566042   -0.39207389722283
H          -1.84654258526493   -0.42277802334198   -0.30075136001553
O          -2.42050676671994    0.15294040892293    2.70795697321259
H          -2.47429848484978   -0.70181908014946    3.13916943543014
H          -2.63730803513854   -0.01650750957104    1.75871668134831
O           0.12004059513942    2.15420554225723   -0.20328806840906
H           1.09285923255227    2.15428959515047   -0.28541307597974
H          -0.15642979969113    1.33462018034974   -0.66042243175078
O           2.70149198229802    1.40063648076224   -0.20572376669763
H           2.48590628940537    0.50720263127590   -0.55227505446553
H           3.50296023584265    1.66912440237170   -0.65827951613848
O           0.52815437084896   -1.51347240182653   -3.43202733912008
H          -0.14669526133433   -0.86332472253893   -3.20990589265329
H           1.32120447833201   -1.22206925292197   -2.95185338072506
N           0.06471298430294    0.90157812421390    2.10222616132813
H           0.02014703371269    1.57760284823449    1.27829404174297
H          -0.90100304076325    0.71460364617591    2.47534285174476
H           0.41548165536948   -0.00471458710465    1.67841412030091
H           0.69907661308660    1.23360389624040    2.81970618852475
