    26
        -50.46402041  Gyration_radius:  2.52227502999 Dipole_moment: 1.269
 S           1.56843510830702    0.56563324361546   -0.98122522971359
O           2.66439557272596    0.14976865363034   -0.14108731773140
O           0.71243876172492   -0.53171168239138   -1.41827054609261
O           0.77687465663910    1.65360914456473   -0.42972011663857
O           2.24554455440391    1.13618339705576   -2.30446951097881
H           3.14492382594843    0.84752203776443   -2.18983366174520
O          -1.11177628672508   -2.65051319305384    1.64569181330335
H          -0.33413964961357   -2.06984073114667    1.78649381637547
H          -0.76022486138332   -3.50250986809856    1.38276976601819
O          -1.54990613492522   -0.58363571650935   -2.98502998009618
H          -0.64829748298234   -0.59371202572519   -2.62105164981951
H          -1.53336009580345    0.02231741653075   -3.72634237520752
O          -1.66947967494114    1.69706045486760    0.71656952304672
H          -1.34783488400220    1.80900217680984    1.61694001173789
H          -0.88851879328742    1.86776566455486    0.15684952932190
O           0.88270405795943   -0.86522002235782    1.58456930339495
H           1.60705255947793   -0.69639618092852    0.96006702648087
H           0.76594848077284   -0.02450405515221    2.05902030994775
O           0.87467567496696    1.79963553601221    2.22262757642778
H           0.93375520878795    1.84941932143026    1.24452895917458
H           1.73770189984603    2.05209730960172    2.55368269511724
N          -1.64505697878300   -0.79942400768265   -0.21866772925021
H          -2.23897540359745   -0.93829536160799   -1.03762238885981
H          -0.65811476933845   -0.74381668099056   -0.58140235988568
H          -1.84146590491855    0.12968010122978    0.23270134796045
H          -1.68729945124971   -1.58011493197720    0.47221119772304
