    26
        -50.45882041  Gyration_radius:  2.54933650235 Dipole_moment: 5.480
 S          -0.36775520797865   -0.98806181155093    0.12435548010727
O          -1.38062469591037   -1.39845252889342    1.06155345372692
O          -0.46765035642098   -1.65393397990338   -1.17603567269876
O          -0.58247681540124    0.52548976359255   -0.21591786144854
O           0.98803814873011   -1.10120795852437    0.66567742217119
O          -3.19717735957275    0.23259278549159    2.10173778650357
H          -2.60256856300513   -0.46456061765612    1.75205063509426
H          -3.97930429838698    0.21735524033283    1.54913633660258
O           2.97814310831324   -0.75819831014037   -0.92878974806400
H           2.26651814024941   -0.83858020449982   -0.23517185253792
H           3.57173337481528   -1.49665093749476   -0.78057341221864
O           0.29467243463991   -0.42349527925420    3.13771389819195
H          -0.46079262906468   -1.00309619277844    3.27119413736244
H           0.69435705246544   -0.72432758856155    2.29892191656757
O           1.21185013622890   -0.80850970855403   -2.75515200176169
H           0.92907691367387    0.21148088723640   -2.82419061549006
H           2.03180819705415   -0.81609579777351   -2.14810643413750
H           0.44947548068602   -1.23681438630769   -2.12605873593883
O          -0.91044843864501    1.65038028302128    2.00352550839911
H          -0.37842402022207    1.05134398527967    2.58069403548812
H          -0.69578864214014    1.03077853639843    0.68124827521885
H          -1.83862839334882    1.39373423230282    2.17267428124402
N           0.46348135316547    1.62189633886835   -2.63785941704152
H          -0.03177521266790    1.49082847566275   -1.75496658282317
H          -0.18532822433604    1.98497888758422   -3.32357583128623
H           1.19958850704374    2.30112587608107   -2.49408504123972
