    26
        -50.46800914  Gyration_radius:  2.51049357267 Dipole_moment: 4.195
 S           0.24641839310743    0.08583757663340   -2.01001535598404
O           0.37275008967983    1.45217232293187   -2.43503924749201
O           1.10644518965431   -0.26998606886476   -0.88536209041249
O          -1.12503073566653   -0.34076992784133   -1.75004460762959
O           0.73847094209120   -0.80227870095058   -3.23496705027834
H           1.13248616823652   -0.14690967536263   -3.80112181902538
O           2.12116647645187    1.27564113083804    1.18484801012786
H           2.11199631068034    0.68370300259747    0.41910250711367
H           1.43264947130578    1.93186798591270    0.96206912130131
O           1.29313801167430   -0.23968087128938    3.16975432799627
H           2.04792033887057   -0.72689175206239    3.50174987643529
H           1.65790701660414    0.42986624492574    2.52952175722113
O          -0.01189104084608    2.49094398196708    0.04690834218049
H           0.15889560182822    2.28019502380136   -0.88614775809667
H          -0.89295446428154    2.15115513157552    0.24581704978438
O          -1.15346031789346   -2.75056726099730   -0.58195825732669
H          -1.21680866970116   -1.92279884651013   -1.10198283065207
H          -0.68859578775640   -3.37547341206800   -1.13915156591288
O          -2.30216000306799    0.82885985215715    0.27118863835156
H          -1.96018031309042    0.43616098360721   -0.56661497115878
H          -3.25125876619748    0.91181548134004    0.16928058788349
N          -0.37313918040159   -0.88930367962388    1.20875049993685
H           0.26181973518271   -0.61936084147553    0.40661816952156
H          -1.17032328039111   -0.23486700894108    1.19293343250859
H          -0.70761864624294   -1.83603061673406    0.98277782450925
H           0.17135747016603   -0.80330007556055    2.10108541909876
