    26
        -50.46669302  Gyration_radius:  2.42778209559 Dipole_moment: 2.420
 S           0.87040127580759   -1.79352096910735   -0.41671704123259
O           1.22125159687543   -1.66422549234027   -1.81021459139407
O           1.68574361340434   -0.93340073858808    0.44065028014152
O          -0.54509042220009   -1.59724759864597   -0.14826972294434
O           1.19366155098576   -3.28580798275078   -0.00352739770624
H           1.94228711646509   -3.47229665446807   -0.55982262942641
O          -1.94210623057420    0.27030833766147   -1.53716737436987
H          -1.55076259611660   -0.50093357774625   -1.08798901625224
H          -2.05038595449009    0.94889619867473   -0.86362847455256
O           0.89751766105782    0.77330849651817    2.51152109891672
H           0.12356193476484    0.30234478867922    2.83613937807146
H           1.36660470470959    0.12365321171008    1.96978595956001
O           0.36832217313732    0.64408314814576   -2.84641164808749
H           0.73129965930422   -0.25331693255061   -2.69875433104606
H          -0.59172808092527    0.55455162072645   -2.67036477918816
O          -1.56658640389075   -0.56533783513343    2.00832018096323
H          -1.12952528752810   -1.03694618923519    1.25759405902672
H          -2.43556083267817   -0.96064246978214    2.09606122572148
O          -1.27036467330698    1.87012130323951    0.91201469413108
H          -1.41938232626505    0.98960940506469    1.33066245484972
H          -1.00282247670932    2.44005947840037    1.63747061929248
N           1.03137691694791    1.45431960918469   -0.47017154914191
H           0.15028652728587    1.68204881755006    0.05469932175613
H           1.40086564839229    0.54829909012820   -0.08075050778172
H           0.80457743644763    1.26910600231592   -1.51001653819905
H           1.71655745909979    2.19296695234915   -0.35111366110873
