    26
        -50.46564504  Gyration_radius:  2.64436308744 Dipole_moment: 3.173
 S           0.97314493695515   -1.15245776906003    1.79328602131444
O           1.80335657708918   -0.36977119483117    2.67845859013598
O          -0.33574588785627   -0.52132560858770    1.55869382204084
O           1.60190246723482   -1.51954349724585    0.54666311426618
O           0.65173486319531   -2.50205139992284    2.57605012589339
H           0.83902351668470   -2.26237042421253    3.47852825136224
O          -1.82258850369955   -1.52818177076272   -0.33592564373162
H          -1.28250212301179   -1.18589972322754    0.41993407143609
H          -2.41757828660315   -2.18105503745790    0.03434337465981
O           2.90735125048605    1.06481167799128    0.74376292311882
H           2.59581892379907    0.64426196733611    1.57355053085948
H           3.33529908159469    0.35329372793433    0.26011881401989
O          -1.44557474601240    2.92317413736181   -1.13427757758643
H          -2.05166730653058    3.37489022353064   -0.54603412164820
H          -1.93156554926865    2.14952130239724   -1.49563874834856
O           0.47753897884975   -1.03162864998936   -1.82316990183365
H          -0.38873905010463   -1.40466470797436   -1.60700472462679
H           1.05454196715637   -1.36940694853157   -1.10986497810942
O          -2.47910534997038    0.57989971094464   -1.95905129167728
H          -2.34422249592693   -0.14272124624455   -1.31710414972613
H          -2.03454464792914    0.30297926453644   -2.76305880115142
N           0.45791442486406    1.18788465573222   -0.32407901276480
H           0.02254796459383    0.68734308959688    0.48168005368979
H           1.43946704727819    1.39948864231956   -0.03238925568479
H           0.48066589638259    0.48393651244799   -1.10544479843796
H          -0.10647394925865    2.01959306593160   -0.59202669749450
