    26
        -50.46836233  Gyration_radius:  2.43439992378 Dipole_moment: 3.041
 S           0.84378737953226    1.04100339175472   -1.32184080755792
O           1.01580094291220    1.78742111713392   -0.07935776414612
O           1.99057784106329    0.23456692358007   -1.66277100871117
O          -0.40593075187624    0.30226895217569   -1.32563723848500
O           0.71597791600284    2.12446481598199   -2.47307110639264
H           1.63642698986843    2.29939793190538   -2.63327072661037
O           1.22519454559964   -0.12406016574342    1.78790114891917
H           1.30020231039245    0.64312328240697    1.18739884786949
H           1.60981971472880   -0.87723660216968    1.27446791141144
O          -2.35584939464595   -1.19649677791291   -0.18235668860969
H          -1.96354247410029   -0.48358679157333   -0.71434448626883
H          -1.88296359419365   -1.98732244611912   -0.47322140278188
O          -0.13903257939100   -2.32293555801128   -1.54127099274271
H           0.15882027967715   -2.58358860180698   -2.41388572375951
H          -0.16055132667493   -1.33951796981915   -1.54375058316268
O           2.09754041376627   -1.86143744935853    0.01237732001563
H           1.33659202623759   -2.32390057535852   -0.37347296790016
H           2.28390608752667   -1.14091445743630   -0.61937114421390
O          -1.22086027551753    2.47235686722466    1.09283734577152
H          -0.97144880541553    3.23993678457634    1.61051664028553
H          -0.42519258403418    2.24673010081944    0.55196320762134
N          -1.35751202817181   -0.04529314043784    1.99397290342504
H          -1.75859705258433   -0.26451426995057    2.89837317160030
H          -1.80728761599090   -0.60544627680283    1.21979608301597
H          -1.47795840009824    0.96761794676435    1.75122289353736
H          -0.28791957461601   -0.20263701182029    1.97679512787269
