    26
        -50.47026942  Gyration_radius:  2.42727518836 Dipole_moment: 2.782
 S           0.41951662923667   -0.87716342074984    1.03386793913892
O           0.59639491407329   -1.05477074952918   -0.41271702732536
O           1.42242340621650    0.03918674453993    1.55605996802734
O          -0.93827969185740   -0.47192823683227    1.34486331200917
O           0.63010808493982   -2.27097432343293    1.69818698425614
H           1.55919366139638   -2.47282374005268    1.46890266857792
O           3.03298636622770   -1.91494568131127    0.68192356648619
H           2.73384372461838   -1.87437531046212   -0.23197638860955
H           2.82812334879746   -1.04452880425715    1.06074353844806
O           1.19394634076581    2.43194354351461    0.48850797575525
H           1.32603100453307    1.55278621522777    0.91471237885095
H           1.59446295057086    3.07590886527877    1.07491467131551
O           1.09306148124439    1.15868573174931   -2.05669357763359
H           1.25193022470262    1.85062464466399   -1.40436282953836
H           1.17968546999054    0.33016437716681   -1.56807253597376
O          -3.01751791049758   -1.45706261842926   -0.02216892235056
H          -2.27028021985490   -1.22608630974381    0.56943616996900
H          -3.81421009643885   -1.32254706208911    0.49361023952145
O          -1.46028347313342    1.91183786111012    0.19785321466249
H          -0.57668686452389    2.32401492374703    0.22087558637691
H          -1.40350602897684    1.17461433324947    0.83363810559109
N          -1.49450650406218    0.02787172993717   -1.62877622802040
H          -0.64438225076351   -0.47853715498848   -1.26216783271483
H          -1.39870110039238    0.20318776267499   -2.62386305157845
H          -2.31337786910535   -0.54913089042254   -1.36238089182172
H          -1.52997557746170    0.93404754945056   -1.06491703319222
