    26
        -50.46752071  Gyration_radius:  2.46451169 Dipole_moment: 4.139
 S          -1.26643765381542   -1.57119467735742   -0.27774032831123
O          -1.74268359275541   -2.12927539033601   -1.51081885324741
O           0.17167106666309   -1.60015802970793   -0.09924235730727
O          -1.78472224952394   -0.22327627632441   -0.00842579357904
O          -1.87339991429662   -2.49697014349032    0.88228778397413
H          -2.52961159839567   -3.00934956232232    0.42002801800920
O          -1.19823145151092    0.32986705566549   -2.54827084843961
H          -1.21254206692412   -0.59402892981441   -2.82530198146778
H          -1.61205999999853    0.29174255795803   -1.66732980724994
O           1.82022412258659    0.91877175819451    2.09782401216358
H           1.36824040654136    0.18290458958358    2.54131556939830
H           2.29127604274713    0.51069814575521    1.33231711018845
O           0.96950198581312    1.68415893314218   -1.90830464719240
H           0.22064088502445    1.12922775960097   -2.24465582321393
H           1.19182954868775    2.29457938732484   -2.61260420475799
O           0.00493002040010   -1.03982406112585    2.48875699519667
H           0.10498321871867   -1.31326575505930    1.55740311251633
H          -0.72854121998918   -1.55606384133877    2.82490049448930
O           2.45870768056260   -0.13148554314694   -0.26411574829652
H           1.76153214019627   -0.80814237216305   -0.24727311146639
H           2.17853787951963    0.49959063106860   -0.93953597063020
N          -0.13012300856870    1.74774480747586    0.60659620997634
H          -0.63954815061072    2.56279167056389    0.92960749949395
H           0.31360036844857    1.92249107341715   -0.31424607241474
H           0.65590307863217    1.46294131818769    1.30736387224969
H          -0.79367754814906    0.93552489424954    0.47946489992419
