    26
        -50.46426272  Gyration_radius:  2.67513253666 Dipole_moment: 1.661
 S           0.38204130555414   -1.40304497576590   -1.91555517660851
O          -1.03622811717817   -1.28561624617114   -2.18760158456735
O           1.17071148772592   -0.38906142823294   -2.58797527142688
O           0.64686423963522   -1.48208622418605   -0.48132002457415
O           0.86108712027223   -2.79700392363187   -2.50093945198370
H           0.85142433358690   -2.63625910864182   -3.43883120527485
O          -1.92806245332448    1.00824897573568   -1.21703156604331
H          -1.11369307542694    1.54061714523348   -1.26949759905250
H          -1.75533128569284    0.23642609870278   -1.79604048256159
O           0.63708732248635    1.90453149931369   -1.50628032751398
H           0.87403438123135    1.05551386138333   -1.96297219302871
H           0.96137216265964    2.60817443702158   -2.07094536401449
O          -1.19518023263411    0.24731454601804    3.19014563412884
H          -0.21855226219725    0.42277010196159    3.22863483683515
H          -1.61531467991655    1.08980279458203    3.37085582394286
O           1.36989287056335    0.79498072903317    3.12225378011550
H           1.98327588115089    0.19976822350980    3.55512743426924
H           1.62321422538233    0.78886242312584    2.16435067499853
O           1.99241999163560    0.61191923692337    0.56429723328620
H           1.61652925440761    1.28573671523690   -0.02117145612111
H           1.66022733240120   -0.23374129582072    0.21273677372199
N          -1.56429076710166   -0.71997531914567    0.72969579745075
H          -1.43187798723850   -0.36650669896925    1.71476709888564
H          -2.28001146705255   -1.43856539394431    0.69766367160074
H          -1.82574716781310    0.07156596665232    0.06418347965778
H          -0.66589242311835   -1.11437213992449    0.34144946387802
