    26
        -50.46766241  Gyration_radius:  2.43968650413 Dipole_moment: 4.398
 S          -0.54027415965700    0.78379259191813    0.92277940845081
O           0.13586640934585    1.33884134301881   -0.24948245726267
O          -1.30623492881631   -0.41286835496043    0.54705522984237
O           0.40730474850957    0.48451994240744    1.98480244900478
O          -1.53309395702728    1.83579217066154    1.45761021039007
H          -2.37391521230192    1.71490737441886    0.92167883597324
O           2.33379449332050   -1.84721093411778   -0.31386424327098
H           1.82125613027862   -1.53382265658431   -1.08929145008782
H           2.72350357522595   -1.02479602911609    0.06250208245591
O           2.75531967458451    0.58812393135072    0.71102690088145
H           2.58629769490185    1.27545641206533    0.06201751826215
H           1.98007631000381    0.62485567064526    1.30488576816263
O          -1.74187105952479    1.50919186162563   -2.15162287834759
H          -1.02818797637901    1.61222920542202   -1.49210616117215
H          -1.56419257037737    0.67633113192269   -2.59631308606644
O           0.81731632705781   -0.47334284462581   -2.05049720632023
H           0.55019861794014    0.18022541771777   -1.36501323803436
H           1.27027495696494    0.02562148207065   -2.73316446785731
O          -3.43712345197578    1.11328029879138   -0.10484043556988
H          -3.06351682782312    0.23147694746268    0.03945915859458
H          -3.06880055854805    1.40287183777259   -0.96599324213290
N           0.45409337949008   -2.07045991895115    1.43817133394610
H           1.26465199338064   -2.12515979346365    0.70547100061708
H           0.26858131454659   -2.95069909931321    1.90636750443155
H           0.68428607898264   -1.29967159657516    2.09019443022309
H          -0.39561098207907   -1.65948640156941    0.95816702486455
