    26
        -50.46704488  Gyration_radius:  2.46185444769 Dipole_moment: 3.974
 S           0.07462641478248   -0.51010720958447   -1.80927833951456
O          -0.12451133258555   -1.43879530857375   -0.69539511368263
O          -0.87530208289304    0.59449153496286   -1.71652392419781
O           1.44141875788226   -0.09564513511450   -1.95459130400630
O          -0.32591052232336   -1.29787137156992   -3.12154293734747
H          -1.27206477017846   -1.19883290410331   -3.14630123049562
O           2.47651614613058   -0.78205360309511    0.41124316650271
H           2.24382943801317   -0.52616452488159   -0.50241517852962
H           1.99455451821278   -1.59637564821558    0.57106152624501
O           1.40549222396947    1.28213291406252    1.75128527460924
H           1.99610589523716    0.57242301850271    1.41902042260745
H           1.27511596377888    1.87133387416747    0.98029536767746
O           0.86452876320803    2.35464131974658   -0.67990311461129
H           0.20809577879850    1.77536927278275   -1.10883430612115
H           1.67592234750614    2.19082863496765   -1.16780492001527
O          -0.99504228180832   -2.80994546574256    1.57351066749627
H          -1.03294363963479   -3.76689494445223    1.57911078807691
H          -0.69335850822593   -2.54964524434627    0.69122183565513
O          -2.33679080395209    1.82332634887914    0.18048845208697
H          -1.92820771223145    2.69160568659692    0.22129761182537
H          -1.98081847810039    1.40869590601736   -0.62815013369081
N          -0.83590416640144    0.00052994450459    1.45685511226748
H          -1.57241413620474    0.68998220635808    1.18847036909531
H          -0.58648736252339   -0.54218821466664    0.59723540074817
H           0.05451337458409    0.52815580665540    1.75354515343662
H          -1.15096382494355   -0.66899690386771    2.15609933382589
