    26
        -50.46017686  Gyration_radius:  2.61552036987 Dipole_moment: 3.884
 S           0.71188728450254   -1.61224363277085   -1.33787535310659
O           1.38853850046043   -0.31299932725828   -1.39267722371881
O           0.69981521370620   -2.12148026822995    0.03070749902666
O          -0.57761872417283   -1.58387153123419   -1.96953238562536
O           1.62280335184399   -2.62129694780899   -2.15068915945337
H           2.30367196931078   -2.79783613466707   -1.51060256661269
O           1.28197133004565    1.66988466954733    0.36280382598171
H           1.53952155325262    0.94639818889619   -0.24903672662073
H           0.79895137159576    2.28799285341762   -0.19612080435755
O           1.83843020602328    0.93764864887336    3.08352172200542
H           1.87792782292153    1.36589122842637    2.21743041462958
H           2.61679951502334    1.21747238140731    3.56584968182961
O          -0.22152786967816    1.68865749889407   -2.10054335827404
H          -0.32713703846045    1.76295309688008   -3.05006038238882
H           0.35054294848418    0.90344374016218   -1.95526915239625
O          -2.82353618913856   -0.19050890776538    1.28729210179658
H          -3.31641359088201   -1.01181027299334    1.31855305833976
H          -2.76151880130689    0.04716065828512    0.32167707784955
O          -2.40222814353357    0.23399599947285   -1.25564842230661
H          -1.89453240685836   -0.54427990065381   -1.55822881856740
H          -1.82244041927009    0.98229519773288   -1.47493788524268
N          -0.19008493520493   -0.25410893100554    1.62047701908107
H           0.18462436052176    0.60323361493359    1.16325897570411
H          -1.24396762159492   -0.24011472637553    1.62433482646101
H           0.15613368295669   -1.07743162771816    1.04646484944214
H           0.20938663949975   -0.27904556845650    2.55885116654066
