    26
        -50.45882056  Gyration_radius:  2.54909498558 Dipole_moment: 5.488
 S          -0.69786471735396    0.42822127340515    0.67765671546931
O           0.62876776030179    0.48808933455570   -0.15261049541028
O          -1.17782790926350   -0.95231499607768    0.59020276658763
O          -0.41558213903191    0.83817302242128    2.02854789099938
O          -1.59540761208447    1.33889191805475   -0.03607139742876
O           0.35247501206492   -1.84277048649337    2.56911466825856
H          -0.29307345244805   -1.66115362390190    1.85906061049740
H           0.17003457350517   -1.18047149814244    3.24186505701425
O          -2.06484342025701   -1.79734583539170   -1.67241686760419
H          -2.90554970667517   -2.22116834677936   -1.49024092649694
H          -1.67727064106739   -1.56961348738639   -0.78258484885806
O           2.00609749730507    1.44884863339680    2.92516533230964
H           2.14733125124294    2.39004018582788    2.81757503367448
H           1.06688902730666    1.28599204855002    2.69427148436869
O           2.34393467978796   -0.65485632581833    1.27945790135368
H           1.35917799057388    0.00022170735734    0.39655231605773
H           2.52248491063496    0.06683042485256    1.91454315248191
H           1.76457801373019   -1.28285358657505    1.77434731728254
O          -1.92059830927010    0.64253432483260   -2.36806590002121
H          -2.07934861051015   -0.35504626785462   -2.22450892143041
H          -1.83592774016242    1.01444796648480   -1.36069324549510
H          -0.93006422486274    0.71357521770299   -2.74042907749274
N           0.54458033143240    0.72177154904729   -2.99887869359244
H           0.85718394416101    0.67751444029064   -2.02819079248189
H           0.93037613787190    1.55302005485367   -3.42689505968933
H           0.89944734308622   -0.09057764722866   -3.48677399036667
