    26
        -50.46907417  Gyration_radius:  2.47127763216 Dipole_moment: 2.528
 S           1.06443570824596    1.13851556853639    1.57368556807844
O           1.09245094714659   -0.29474169220310    1.77159139915406
O           1.24594561425754    1.49755748604085    0.17170687092171
O          -0.09258687941869    1.76404409745877    2.18428499548836
O           2.33011591950826    1.74207650920173    2.31928164381896
H           2.03795924221981    1.73082429492109    3.22420588802792
O           1.05347309938783   -2.38905017517766    0.15987396622663
H           0.09787331975342   -2.41411685951439   -0.01222369119816
H           1.14565894895771   -1.75425386184371    0.90096419011244
O          -2.04441888339702    0.43117210206490    1.17077479586385
H          -1.27912200576059    0.91339941761998    1.58284707042061
H          -2.74086249755029    0.44466949743489    1.82981538869200
O          -1.13639764457708    1.84849875238173   -1.09841080173630
H          -1.72228377955293    1.53749076061812   -0.39607522513902
H          -0.26132857871264    1.92275192273423   -0.67829928696575
O          -0.78371847654543   -0.32450403283889   -2.58908747524337
H          -1.19931244357172   -0.95455444558910   -1.97850861184522
H          -0.99973091017206    0.56364744030648   -2.21562375092214
O          -1.61264178000695   -1.76126124171780   -0.34430693824805
H          -1.70766861406493   -0.97477032476261    0.23536168854352
H          -2.39420921452944   -2.29810867088180   -0.20661409915621
N           1.61263826727566   -0.47548713468136   -1.54305267540484
H           2.44941107188185   -0.46504700852779   -2.11369251909534
H           0.71858305232085   -0.41874216974150   -2.12847249132787
H           1.53514287055475   -1.35202689925813   -0.94085912066343
H           1.59059362635043    0.34201664741787   -0.87916679840231
