    26
        -50.47105009  Gyration_radius:  2.42696984168 Dipole_moment: 5.030
 S          -0.84270925204070    0.11759513404961   -1.75892925223047
O          -1.65211885528336   -0.51994336818404   -0.73325739081076
O          -1.04050661418645    1.53707991712678   -1.87228789654556
O           0.56319027248608   -0.26603062121681   -1.60355688682950
O          -1.29136830785697   -0.50007109566843   -3.14732407085738
H          -1.86467306290780    0.19232420597146   -3.45517015426330
O           2.00818753356454    1.52750115132969   -0.28102391935675
H           1.47343366426010    0.91252816526070   -0.82946415380971
H           2.65098264607935    1.92549459201900   -0.86939106459602
O           1.52322160060820   -0.02078067443445    1.96988315359849
H           0.56707968208390    0.23443286101042    2.04200989474428
H           1.90444848494797    0.63771761318337    1.36865536575650
O          -0.38165249094800    2.86222011256765    0.40292220476771
H          -0.75365359480098    2.55975618263063   -0.44411975845110
H           0.56634788601414    2.68589133965263    0.32620639203604
O          -1.52797037923642   -2.51447406695729    1.02290514447479
H          -1.73396930378478   -2.03454318081822    1.83055216476708
H          -1.78977887075849   -1.91306611044304    0.29781745481441
O          -1.02711063923241    0.59040748055796    1.65960348629774
H          -0.91807648262574    1.53885903056885    1.43295470803665
H          -1.33823102239824    0.19245373561628    0.82741484829615
N           0.99855532067640   -1.98166622472547    0.35844038824046
H           1.33108207980310   -1.26470059107718    1.09830667945811
H           0.06410205458023   -2.35757271711854    0.66870200447108
H           0.83887342602305   -1.41864744383774   -0.51604064865228
H           1.67231422492589   -2.72276543706623    0.20419131664602
