    26
        -50.46883534  Gyration_radius:  2.42977989035 Dipole_moment: 1.575
 S           0.53844061475700   -0.24937724983279   -1.86483949640805
O          -0.50224577169414    0.61086297938443   -2.37679348784491
O           1.35242643612799    0.43873459276856   -0.85311200705802
O           0.07457883344548   -1.52763637426999   -1.37232313829987
O           1.50577227519638   -0.55009273805697   -3.07868476750635
H           1.39067230922462    0.23145493073467   -3.60838746256667
O           2.39721373511525    1.48163238995002    1.59662260475586
H           2.43355045577841    1.27917305971536    0.65582618289834
H           2.51013324587740    0.63910248504784    2.04364206229813
O          -0.58524093006147   -0.71710639775206    2.22961156137887
H           0.26753689936792   -1.10587920821964    1.93769957064373
H          -1.25938030019839   -1.09337655502049    1.63935345074631
O           1.64512918061086   -1.52834580597402    0.94360179055940
H           1.40482346451264   -2.32749142157418    0.46842913382860
H           1.62611860558612   -0.82954634761090    0.26091364307745
O          -2.12220365833692   -1.41330036062779    0.03817755930504
H          -1.31332341695409   -1.47955784327441   -0.52602497983812
H          -2.66216376794806   -2.17404166108161   -0.18121268815072
O          -2.43831795338236    1.25776285041781   -0.65698696766004
H          -1.86062144921461    1.13253602808261   -1.43727636598404
H          -2.65276225631299    0.35510060537878   -0.37101943478064
N          -0.35452364015124    1.54615637653595    0.91445936882621
H           0.36449604939566    1.25050605988849    0.21733897241013
H          -1.26974017914186    1.65158147500775    0.38992080547258
H          -0.45148504357806    0.73462335811187    1.60227161373297
H          -0.03888372802380    2.38652475227432    1.38879245615831
