    26
        -50.46758747  Gyration_radius:  2.52008493218 Dipole_moment: 5.352
 S          -0.08628618753571    0.04372581226801   -2.15690196568376
O          -0.56241417834832   -1.28307973553695   -1.76750603501598
O          -1.17669840453068    1.00196064421461   -2.19753807858805
O           1.03757597518982    0.47292423225455   -1.35557977646477
O           0.44320126102449   -0.08931179178548   -3.64096759333163
H          -0.35999133594919   -0.12155917286535   -4.15044559400368
O           1.81667180775756   -1.87494828787701   -0.37483958199252
H           1.19916595446535   -2.37781337747537   -0.91403621134089
H           1.72704473517778   -0.96103969966236   -0.70713064232726
O           1.58712042880956    0.77021385531245    2.73686235602706
H           1.25772976953885    1.37108129292277    2.02484225603932
H           2.54219707245102    0.84525215122103    2.72151306077106
O           0.70580929851742    2.20895515269230    0.68606329196419
H          -0.26138838928447    2.21287920497321    0.67746612460872
H           0.96217774798867    1.68004720070966   -0.09061698740438
O           0.63792381969988   -1.59216558151915    2.00375337510559
H           0.99926099650950   -0.75613285155946    2.38621840335490
H           1.21244043504634   -1.79795887258182    1.22968217074338
O          -1.99031517611711    1.62846761661860    0.17368182956957
H          -1.70032457645559    1.45245900898350   -0.76139929500419
H          -2.71286178068181    2.25560561856316    0.11692040466993
N          -1.48111277953784   -1.01695800576197    0.68163156928019
H          -1.74524074463461   -0.02026595897138    0.74293164483622
H          -1.17154308667071   -1.19685680310600   -0.31358361930594
H          -0.61150229130846   -1.24549344676521    1.32849425269611
H          -2.26864037112473   -1.60998819526150    0.92048466080652
