    26
        -50.46916982  Gyration_radius:  2.51098192806 Dipole_moment: 4.009
 S           2.05355917216945   -0.07474882234679   -0.72257429114694
O           1.71975700466256   -1.00576733234347   -1.77980380041287
O           1.22896048739572    1.13330491631763   -0.80094518972621
O           2.04323176210401   -0.65974879382542    0.60277641915042
O           3.54430130957591    0.38110383049480   -0.99616731661121
H           3.62661926617601    0.23800456441800   -1.93302531773879
O          -0.18173627041395   -1.88438316709975    1.16863877051181
H           0.68398412241581   -1.44585445063945    0.97234008856537
H           0.02062713505223   -2.62401903935390    1.74422247081409
O           1.20014471555859    1.60370773509741    1.84666370268562
H           1.73909216268839    0.80408816342943    1.89959539236813
H           1.15603208241874    1.77086829370222    0.89184050263519
O          -0.75184189431765   -1.92303183936502   -1.50375509054521
H           0.18703292617602   -1.76261472954620   -1.73995653244676
H          -0.73252163245897   -2.10401805445788   -0.54719888007742
O          -1.22011087257997    0.47695835796025    2.24324084038848
H          -0.39392675515587    1.00758870960633    2.23005721984670
H          -0.95937490926852   -0.40728576308789    1.93844855951129
O          -2.86530120761959    1.33259269153794    0.42484921277336
H          -2.25966576292065    1.09794615039591    1.18693929513343
H          -3.68238711887508    0.85908822477280    0.58676979163652
N          -1.24818197042281    0.64930216587532   -1.55758617201128
H          -1.93596676051295    0.95552765615135   -0.81202937350098
H          -0.27548785415280    0.94753726949530   -1.27802384136731
H          -1.20704815712261   -0.41721463982889   -1.60864958043100
H          -1.48979099058483    1.05106787264979   -2.45666690000067
