    26
        -50.47304695  Gyration_radius:  2.48589885505 Dipole_moment: 2.154
 S           0.55125973227130   -0.71232789032007   -1.92114175890006
O          -0.89494795491664   -0.89270045822262   -1.87016971250291
O           0.92397803467409    0.56387225057163   -2.49634231314814
O           1.18345475518810   -0.98440473599879   -0.64417139168637
O           1.09966114805387   -1.82147144321123   -2.91293066919131
H           0.84663050948074   -1.47759527761608   -3.76310775715982
O           1.94097644364246    1.04762513747146    0.93811997219901
H           1.81364741328537    0.26611704126276    0.36648302402313
H           1.50948561939322    1.77185704657671    0.45983430985611
O           0.65651671603155    0.31284237958842    3.08611446603166
H           1.22258939562044   -0.35193951695587    3.48117733175540
H           1.17836580606777    0.68325617216889    2.31954857595576
O           0.45013374739992    2.52517822077461   -0.86668954638065
H           0.55116551091739    3.35999644852659   -1.32667655135293
H           0.67564039120458    1.81772930972108   -1.52440799137315
O          -0.75634359634947   -2.50651532146100    0.22958204131661
H           0.16231136002763   -2.20038841515117    0.10039989947636
H          -1.16857540262948   -2.20407714660403   -0.59811790227161
O          -1.79892147326424    1.07464249545172   -0.33392241145672
H          -1.09812014016261    1.74501521971392   -0.42407195893877
H          -1.58409373366813    0.38865810996467   -1.00137350954522
N          -1.50750521782578   -0.48376145065884    1.76343918391510
H          -1.67449116904046    0.23723588136854    0.99426173726360
H          -1.25688044423182   -1.38565611961703    1.25949765074251
H          -0.68705036100514   -0.17471873780309    2.35259583009543
H          -2.33888712015378   -0.59846917931072    2.33206946133108
