    26
        -50.46885482  Gyration_radius:  2.54415864323 Dipole_moment: 1.895
 S           0.98910368185080    1.31934842323774   -1.16682400189666
O           0.16057506324184    2.49587228902498   -1.21650222046065
O           1.33509708356631    0.89082559824923    0.18126493148760
O           0.44718498601024    0.20557653240061   -1.94391753418584
O           2.36794652525642    1.71183594650866   -1.85162822121846
H           2.13367785539885    2.44041578787462   -2.41761315680109
O           2.25796938057334   -1.43870643494930   -0.83755730059004
H           1.62429169598635   -1.09671895951064   -1.49000842374260
H           2.43709624766646   -0.66114938925454   -0.29193183937692
O          -1.70605584297575    0.93859288586643    2.72957663936309
H          -1.16849632990955    1.57016972408246    3.20964471087930
H          -1.93964034886707    1.37843844775325    1.87874633879048
O          -2.01323521891963    1.86292167329550    0.24102788758775
H          -2.33272544776130    1.14086749724259   -0.31272864425221
H          -1.24685110903888    2.23431795678481   -0.23580676251160
O          -1.91433902375928   -0.58878629973915   -1.20687410777348
H          -1.06180233483641   -0.26176859255581   -1.58898307192187
H          -2.26161041831581   -1.22885140954709   -1.82996025449582
O           1.03683121415155   -3.01465487865297    0.94728951482342
H           1.51785956057623   -2.55700250504532    0.21643846112397
H           1.70710893806804   -3.43759197487410    1.48480068900470
N          -0.48141799387579   -0.80171828137647    1.12045782564304
H          -1.16327111918982   -0.89251754922124    0.34546346087846
H          -0.03409668129169   -1.72055338464913    1.30390409294310
H           0.26224307003634   -0.13228657468147    0.79317817547114
H          -0.95344340348239   -0.35687649850937    1.93854279124261
