    26
        -50.46906540  Gyration_radius:  2.55468391946 Dipole_moment: 1.400
 S           0.22933806242785   -1.54552710700690   -0.36668383835895
O           0.39936702886595   -1.40256012093022    1.07390697903309
O          -1.14169999000134   -1.25130347975140   -0.77273143366126
O           1.19414503982515   -0.73513947785178   -1.09524195830532
O           0.52859481385447   -3.03019680655504   -0.74104847997782
H          -0.23839615492264   -3.49617714799737   -0.35594913039793
O          -1.66650732220293    1.37168944767062   -0.59116857102377
H          -0.98957242650810    1.67614566087228   -1.21998513240087
H          -1.60233856434293    0.39689739726467   -0.62098860400101
O           2.56448352551042    1.42734313604178   -0.27451711011741
H           2.12560911078155    2.02250449185825   -0.89332355381824
H           2.32505920165726    0.53509247538730   -0.59339138774348
O          -1.17969529244501    2.23069899845797    1.82345538024217
H          -1.40700561495279    1.99025902753726    0.88195676302357
H          -1.89751134712257    1.88388413172081    2.35555113124819
O           0.47929048521248    1.52107140628416   -2.29317021037236
H           0.27814447808866    1.39461589110642   -3.22129719035880
H           0.70396763750525    0.63204079775381   -1.93853622814090
O          -1.91826215689972   -3.59114878819039    0.09003457391742
H          -1.88100705663460   -2.64054686052774   -0.14450966904106
H          -2.51668961845469   -4.00270781716610   -0.53776068315025
N           1.13280193207262    0.93684675006761    1.91086179310837
H           1.75784515645489    1.28444049019958    1.13518810725803
H           0.84486867094393   -0.05462915520932    1.62979907483647
H           1.62330624831774    0.92721873823160    2.79811772958220
H           0.25186415297236    1.51918789073083    1.96143166861894
