    26
        -50.46770712  Gyration_radius:  2.51902536534 Dipole_moment: 3.822
 S           0.65886192412949    2.08077091662222    0.03078321577979
O          -0.75164633622735    2.09129256197502   -0.31536117825255
O           0.95817809252791    1.13644745173030    1.09694430420421
O           1.52294617377974    1.88869378695075   -1.11957340709355
O           0.97269206841872    3.52203392551768    0.60070479848849
H           1.91301022829344    3.48995195212373    0.74504539922269
O          -2.07350242681236   -1.50305133627084    0.65457050103614
H          -1.35787893863273   -2.14511069477051    0.88149602615193
H          -1.97197226164061   -0.76102157757155    1.29589027172230
O           1.24804235837520   -0.42683334064371   -2.22496500615461
H           1.40397085870217    0.47728403661096   -1.83862237359020
H           1.78106655765726   -0.47366893285408   -3.02005504830648
O           0.05047914126422   -2.96475649551562    1.25983809124573
H           0.78883462656370   -2.40206790331806    0.92117349298375
H           0.21070918946772   -3.07015506664833    2.19859528825091
O          -1.49906423675526    0.71700828789044    2.02039187790024
H          -0.54253094491269    0.80527527772141    1.84027020746802
H          -1.89571161593945    1.44197465601248    1.52890371653302
O           1.89988775977770   -1.27931502486610    0.37201377138960
H           1.81746635106948   -1.19087456289541   -0.58739205260459
H           1.64712113139512   -0.40928204433975    0.73336084001986
N          -1.36212890304899   -0.21254403170628   -1.44139142862927
H          -0.46219225726437   -0.53261013275709   -1.83631679103529
H          -1.19638674773916    0.75228501021297   -1.04797079337296
H          -2.07926828796227   -0.18540665441478   -2.15811350874072
H          -1.68098350448551   -0.84632004479387   -0.59022020461577
