    26
        -50.45198898  Gyration_radius:  2.60447683574 Dipole_moment: 2.751
 S          -0.02450397019958    0.66917396708772   -0.24438381661124
O           0.00236869134942   -0.76768323100945   -0.42502133349166
O           0.26810936899483    1.36113999514036   -1.54759446549556
O          -1.45483701706699    1.11415464147697    0.08241635115499
O           0.86346030256185    1.12299635753842    0.80215178930533
O           1.99536146167267   -1.73504454330508   -1.90083075043515
H           1.60531774393844   -2.28896013452312   -2.57934783580079
H           1.27100731754397   -1.50093745023247   -1.28468290012380
O           3.40243476853614    1.49496624187180    0.10298406282363
H           3.61472814603985    2.40630702421098    0.31271327685600
H           2.51772029916333    1.32168774620592    0.48689919440873
O          -1.27957663748947   -1.67325801218906    1.81925627663567
H          -2.18528415465051   -1.68791276139818    1.44241093014823
H          -0.70060796621686   -1.55444882486935    1.04926055766838
O          -1.22224224807845    0.81939770049857    2.54810280585090
H          -1.27012120507631   -0.17984585777646    2.49484705055329
H          -0.28178685988369    1.03773005768348    2.53510820421356
H          -1.48615687998171    1.08750411527884    1.12528719225761
O           2.54165649424493    0.80682784062768   -2.27915726068737
H           1.30242377667764    1.14546661895509   -1.94209070225940
H           3.05471656682124    1.07418508777039   -1.47279322527398
H           2.50301049307546   -0.18397531360099   -2.25542324971677
N          -3.58756730952798   -1.11066947653322    0.44203930331252
H          -3.12834018792050   -0.31397457580501    0.01266832685637
H          -4.37630736655359   -0.76273836833559    0.97261262531985
H          -3.94498360796831   -1.70208885477178   -0.29743239747162
