    26
        -50.46802081  Gyration_radius:  2.47947832507 Dipole_moment: 1.697
 S           0.80787695535356   -1.26138993779169   -0.93515955822822
O          -0.00526771690411   -0.36632462954279   -1.74945495141625
O           2.02679281359743   -0.61778227558076   -0.49223400999581
O           0.06241940167972   -1.85874916370049    0.16025598657746
O           1.22289474003278   -2.46634048798046   -1.87240810830866
H           1.77498518904368   -2.06910371426741   -2.53920080231397
O           1.96953391831660    2.12572835450104   -0.27244293716403
H           2.02342805559481    1.20952429556150   -0.59320986474552
H           1.04431845043672    2.37917559632562   -0.35017112259788
O           2.63541129840699    0.67691770252427    1.89410046739528
H           2.60574296144704    1.47635291151565    1.33069782187623
H           2.83086238076279   -0.02779092137435    1.25920285715985
O          -0.87376873741834    1.57996810126844   -0.16239334951348
H          -1.83188617702776    1.38138685908060   -0.06648683877128
H          -0.56242308892899    0.96096858064639   -0.85748048091562
O          -2.28936933620798   -1.60838880650261   -1.16906510986224
H          -1.78447425571772   -2.12804480080492   -0.53053677093127
H          -1.59416376555038   -1.12436417904178   -1.64943230389087
O          -3.29239674264835    0.49435428709737    0.13425173381236
H          -3.02008730652218   -0.34363770776615   -0.31309699641174
H          -4.08903431510378    0.78456555332691   -0.31166259548524
N           0.05658254839773    0.16222827577355    1.85113472108022
H           0.03062770445513   -0.75510608473737    1.33972448481157
H          -0.33891353147248    0.87009957432192    1.15729916545922
H          -0.49264049093957    0.13016226144189    2.70352948678738
H           1.08294905692218    0.39559034570506    2.03423908558141
