    26
        -50.46774693  Gyration_radius:  2.51156552375 Dipole_moment: 3.588
 S          -0.47807481842042   -1.66776359670862   -0.80979828708995
O          -0.21593266965019   -1.84036047151347    0.61134445392541
O          -1.65405738616452   -0.86024692149358   -1.05804294183627
O           0.70399880969589   -1.18354622339000   -1.50591661736753
O          -0.79644328823530   -3.10264052564064   -1.39007594506378
H          -0.01442601791493   -3.59921407693852   -1.17040930171152
O           2.83500665849851   -0.40329729879228   -0.03687096476544
H           2.09067876959884   -0.82283867148449   -0.51002171258257
H           3.07177224451780    0.35861550737892   -0.57161754414928
O           2.43514135254274    0.48145666692582    2.48316591361225
H           2.57340403900271   -0.24330755207769    3.09445781614584
H           2.70923745973480    0.14565637544080    1.60093979844747
O           0.62117182766078    1.48152036388171   -1.22755180608706
H          -0.23878040138574    1.78287446581012   -1.58911609961675
H           0.71747523719091    0.56434596517769   -1.54632656084910
O          -2.63059378171797    0.68996037405723    0.90114492067199
H          -3.39859393149431    0.28431603907625    1.30464952877147
H          -2.33209059171518    0.06776575783076    0.20412345190593
O          -1.97190662790354    1.71691070840647   -1.89295551062655
H          -2.46411404157532    1.99509853456320   -1.11499167854675
H          -1.97184279084435    0.74558979758778   -1.85824397189217
N           0.07738048859590    0.70342128153727    1.24054454182159
H           0.34038595751735    1.14201428778254    0.30634008049744
H          -0.84091975937572    1.05148798221428    1.53324740806888
H          -0.01639502913735   -0.33387961898521    1.07753709798712
H           0.84851829098209    0.84606082935317    1.92444392032934
