    26
        -50.46886665  Gyration_radius:  2.46485045483 Dipole_moment: 6.213
 S           0.49325201594246    0.12257110282909   -1.67347334165002
O           1.13065691066397   -0.91948304000077   -0.86457287185774
O          -0.70528106684064    0.61442737149125   -0.97534823021964
O           1.37227078159023    1.17388515728863   -2.07764055173855
O          -0.04764004439509   -0.59551737013454   -2.96853001686446
H          -0.62578985082016   -1.28301177881240   -2.62457130084995
O          -0.80777921230985   -2.56217583468858   -1.05290033486042
H          -0.01543506077941   -1.98117148108942   -0.89304759024888
H          -0.46226371112035   -3.44752476462766   -1.18766275962116
O           1.91783269174905   -0.22231886139351    1.61837732516124
H           2.16962273860744    0.69124444140900    1.34290032944980
H           1.89580357498079   -0.70520048974337    0.77404453136274
O           2.08309727017457    2.11122293149985    0.38296225282912
H           2.05394111792209    1.82880096258493   -0.54673675381145
H           1.24961767207609    2.59291382677391    0.52140071426292
O          -2.08592922437002   -2.20461776292811    1.31392139474995
H          -3.02593586937754   -2.15093943695549    1.13489411817399
H          -1.65483113063986   -2.40101568923188    0.45447393600550
O          -0.52258251615641    3.00875648102854    0.20461580417906
H          -0.52126569871061    3.74378613156813   -0.41058603926404
H          -0.65988138621659    2.20591515046059   -0.33672328001140
N          -0.66271210066594    0.07968752582321    1.60351470062964
H          -0.73645644722363    0.31507412464720    0.57628345293085
H          -1.01155347567224    0.85660716372088    2.15549351621783
H          -1.21276409339253   -0.79095939109434    1.74994070613601
H           0.39200610500517   -0.08095646043623    1.77897028891086
