    26
        -50.46784238  Gyration_radius:  2.55279160084 Dipole_moment: 3.834
 S          -1.43000757855340    0.40587655528809    0.25522088146694
O          -1.07195353205733   -0.45117692132329   -0.88416227539317
O          -0.44237459645391    0.22173039888701    1.33274661882279
O          -1.57018597317251    1.78957919615469   -0.11581663144818
O          -2.80498935685906   -0.07972453682074    0.78870329839756
H          -2.73908609839195   -1.05164485013386    0.95109479311110
O           2.46600938502489   -1.90876410877992   -0.84601773266497
H           2.63676857684614   -2.65355981014469   -1.42393280620223
H           1.69393682525365   -2.15676684410599   -0.29447497791725
O           0.13485617974653   -2.24784194208239    0.49547563084507
H          -0.30696319347681   -1.66608278539523   -0.17848399721979
H           0.22327235792402   -1.63760529027572    1.24290403909543
O          -2.49316841828052   -2.69869360644778    0.97721574370638
H          -1.52147120196177   -2.78178991853171    0.89143153182151
H          -2.87086038743161   -3.04759046492782    0.16680496876446
O           1.32556938483352    0.37057096195174   -1.76960196624039
H           0.38776955585880    0.12052940831324   -1.63717020131220
H           1.83900026492015   -0.44174057512107   -1.57705098431855
O          -0.00329626082855    3.88108296762809    0.08703261568749
H          -0.72423943696010    3.20926510324914    0.08647983604912
H          -0.05507762260275    4.30984836839130   -0.76937610464349
N           1.50083698653824    1.71656921644635    0.45915867399155
H           2.38743999176407    1.72327246027599    0.95118358381053
H           1.57272108904439    1.25414440808018   -0.50655497960406
H           0.76742169932675    1.14039517569464    0.96948263158039
H           1.09807137995688    2.68011742373313    0.34770777980557
