    26
        -50.46775116  Gyration_radius:  2.50273878277 Dipole_moment: 2.328
 S           0.92883996182982   -1.12018661213425    0.80991269320021
O           1.20558915273492   -0.81473487771998   -0.59355062262543
O           2.06947959555986   -0.86076834791076    1.65525461319278
O          -0.30000757359265   -0.50293959535592    1.26082308940879
O           0.67567881145323   -2.69113171697893    0.87264553003804
H           1.56073134396208   -3.03728015614487    0.82415322106458
O          -2.30921145406482    1.05027292083975   -1.88340758005786
H          -3.24095208209127    0.82670974869963   -1.88099479545601
H          -1.82841618763233    0.19357598098476   -2.02057352141007
O          -2.11518690133504   -2.24421042963676    0.35209687675519
H          -1.55664969903478   -1.57930636320421    0.79698461975945
H          -1.73937367211723   -3.09338223403377    0.59213585675227
O          -1.20248426010118    1.89978302368907    0.36288226758507
H          -1.72520063770075    1.66165018505213   -0.44278560235342
H          -1.07593494970387    1.06554605289920    0.84857779403701
O          -1.08227771155531   -1.28919303253133   -1.97368033522917
H          -1.59478750313420   -1.74105566545526   -1.27525486309220
H          -0.19588945381148   -1.16296466709184   -1.59508000201259
O           2.66925920363528    1.70079684769499    1.68082451950636
H           2.30003319403088    2.03080395699089    2.50231261451920
H           2.56589393904064    0.72105542619652    1.71688047600559
N           1.21281418547216    1.82256856146653   -0.54760552594263
H           1.86104960552556    1.98756149796855    0.26016522796412
H           0.19389338989300    2.00683283825475   -0.21235901139192
H           1.45864392327370    2.37660942187349   -1.36070567909016
H           1.26446579950084    0.79338721557632   -0.74965186113821
