    26
        -50.46246393  Gyration_radius:  2.54919969667 Dipole_moment: 2.310
 S          -0.49867753040272   -1.82352239058420   -1.53945607779280
O           0.91922868771636   -1.62354850189291   -1.80746331156214
O          -0.72159080946838   -2.26094407359186   -0.16530524671146
O          -1.31706045086365   -0.68571505939265   -1.89410889275748
O          -0.96223866709738   -3.01437814928973   -2.47308360438918
H          -0.34135084080397   -3.70377939464785   -2.25908968433673
O           2.12352980500098    2.15866905477446    1.69352627046165
H           2.36177991590593    2.62683217126922    2.49348376155674
H           1.14994341437496    2.10818517592572    1.69191829093355
O           0.46263788650254   -1.14533234216565    1.95646170745814
H          -0.27570698398457   -0.70692313947918    2.38891446826844
H           0.06604913420014   -1.75365272071365    1.30182486688366
O          -0.34476218316166    1.69761532325830   -1.45583734731852
H          -0.78900921225745    0.83497748187097   -1.64677448257422
H          -0.10342620643551    2.06083935359283   -2.30893383333758
O          -2.20616092302526   -0.24731204109093    0.77952126264811
H          -2.71423497873141    0.05912749128295    0.02492721373702
H          -1.74562899574661   -1.04439668535994    0.45191001201813
O          -0.60905483876203    1.89988148631903    1.33359733293563
H          -0.68706304946577    2.31040389160012    0.46587531792681
H          -1.20705921706864    1.12864461529611    1.28848893468085
N           1.51040950894669    0.22942686298341   -0.06946611806784
H           0.86301096734810    0.96716452512080   -0.41327288822043
H           1.50252797608823   -0.53795390959682   -0.79155437364558
H           2.42018248211612    0.64675205392883    0.11890927909900
H           1.14372511906786   -0.18106106941415    0.83498714211085
