    26
        -50.47049406  Gyration_radius:  2.43023291123 Dipole_moment: 2.845
 S          -0.31203312364809   -1.80034274954631   -0.36481998148328
O           1.06608437882058   -1.61317927250983   -0.76606014030390
O          -0.45402149786221   -1.74645044994957    1.08780290790158
O          -1.23748800251766   -0.91015706814934   -1.04050832902022
O          -0.72685027572225   -3.26166517673007   -0.80064940723386
H          -0.01504652577129   -3.78383427933902   -0.44728237761007
O           2.91591629061655    0.19734445447217    0.27563318973191
H           2.72670988021830    0.67897312825463   -0.55854317567648
H           2.68829071465677   -0.71400407916111    0.04331944825947
O          -1.07940046825082    2.11104596106272    0.99939832858851
H          -0.96627215770045    2.18608887422691    0.03484273468814
H          -1.82302340927419    1.47856406303872    1.11100785121903
O          -0.87312565125291    1.62289032410031   -1.68185165846290
H          -1.02865880474474    0.66771940457245   -1.50394909422251
H          -1.52061306817309    1.88260636208942   -2.33910975673071
O          -2.68858901754286   -0.04399484653399    1.03446666062452
H          -2.31987781539669   -0.38479921413696    0.19774348381352
H          -2.40805143366484   -0.68596855471628    1.69207332276161
O           1.74899362582276    0.74507914135075   -2.05414009167678
H           1.47033237530508   -0.16449065423491   -1.85960245639211
H           0.93858425007206    1.27338436031146   -2.03053963665774
N           0.78880302274382    0.46209311539762    1.81158889576553
H           1.68684700745392    0.48045056564772    1.23824896338332
H           0.31342019444296   -0.45762610558634    1.61106770746755
H           0.99933918019665    0.54561214766208    2.80066144892776
H           0.10973032117840    1.23466056840994    1.50920116235629
