    26
        -50.46774713  Gyration_radius:  2.51163026298 Dipole_moment: 3.575
 S          -1.57107190909763   -1.05506552953935    0.29302938157802
O          -0.51103308608098   -2.02205624586798    0.48809362315936
O          -1.50184855283969    0.04085782039058    1.24812372647951
O          -1.64531764002227   -0.55676213970182   -1.07184434686482
O          -2.92460712327751   -1.81999670781514    0.57575065269099
H          -3.58111252516697   -1.13979969885797    0.46235398840742
O           1.78804111632180   -2.53699316247023   -0.88697513667283
H           0.89767684720911   -2.61491691889805   -0.50519693358503
H           2.36899497231740   -2.37934584650531   -0.13694284547405
O           1.65649815775296   -1.34158791757798    1.91424098508727
H           1.61010699361754   -1.70671451134703    2.79840749951952
H           0.83521815020883   -1.62810830124657    1.46092199392451
O           0.22776996828366    3.49519334948406    0.24986277786903
H          -0.35906040731510    3.10104966137724   -0.43315879524129
H          -0.35371881149732    3.91560361293868    0.88485405722864
O          -1.25958607285059    2.08380843415183   -1.50733193471917
H          -0.74017798382907    1.99327582133845   -2.31021647672341
H          -1.52261899762945    1.17302942291918   -1.27252051653463
O           0.90562456612349   -0.16747822325356   -1.79806987636168
H           1.37364518140604   -1.02088073545750   -1.68111693486435
H          -0.04211453264996   -0.39467644849163   -1.74983098506175
N           0.89632916259053    0.93072684477256    0.60775523875218
H           0.93690540332358    1.97055556121126    0.61469078772277
H           1.01530215963045    0.57324570799151   -0.38829263913407
H           1.56908658071096    0.45973359324016    1.22068296741979
H          -0.06893159723767    0.64730254721455    0.92272973139852
