    26
        -50.47066960  Gyration_radius:  2.39940541595 Dipole_moment: 0.627
 S           0.14367163797298   -1.75314831315399    0.33728290240309
O           1.40856407101066   -1.07200158504406    0.09946820738755
O          -0.53739760168070   -1.19575756655440    1.50193415235363
O          -0.69898963479236   -1.81223008621147   -0.83179515262702
O           0.50832157933583   -3.24671729893306    0.70111262005603
H           1.17626673593463   -3.15911735636334    1.37365847219172
O           0.33521398407143    2.49900260653950    1.11083713167126
H          -0.59337110826743    2.23502556764176    1.21300990390868
H           0.82734207681195    1.90394508846970    1.71867765591136
O          -1.99788167871454    0.97496255585384    1.21944845803150
H          -2.71456595994444    0.95015964965800    1.85512314039174
H          -1.49035134061523    0.13888267356044    1.34580155598403
O           1.42676208695196    0.40120143310454    2.39375573043018
H           2.02913309788347    0.07095484156421    1.71749135634026
H           0.64056916658496   -0.16578003218230    2.29145707776015
O          -1.83229187032738    0.55271574884515   -1.49240092270403
H          -2.13795913528163    0.84068265288320   -0.61657449625804
H          -1.65070011965938   -0.39903604865773   -1.40030897114024
O           0.77241499204127   -0.90440560646571   -2.94640320068716
H           0.57199936431610   -1.41931760161516   -3.72897393772811
H           0.28914456356131   -1.32842480658341   -2.21775919358996
N           0.72273015367035    1.19660845703583   -1.14255636451226
H           1.28975461592362    1.51621673645920   -1.92071809794314
H          -0.26832250561001    1.00861551123198   -1.46889338955266
H           1.10442456634917    0.28957109372548   -0.78653482575005
H           0.67551822246514    1.87739166518868   -0.32613979230665
