    26
        -50.47900073  Gyration_radius:  2.40298573032 Dipole_moment: 4.345
 S           1.32825966826287    0.81276421288629    0.19754618849511
O           1.37404041417691   -0.63802850421281   -0.02847708560277
O           1.00605559716723    1.50267586938692   -1.04774578771671
O           0.43271291895691    1.15445034533274    1.28010009380059
O           2.75992357924086    1.24970048818258    0.63794518845897
H           3.30272824692170    1.01308649849849   -0.13935738712756
O           3.30513569034650    0.32735533042231   -1.77574658720030
H           2.97533026508821   -0.54435000782492   -1.53119462265757
H           2.51079331123531    0.86416469804413   -1.92658068495878
O           0.41817848148455   -1.32669995116927    2.34385891900909
H           0.91560142152187   -1.31683938067884    1.50093664292196
H           0.41762782952590   -0.39156516944088    2.59059287547833
O          -0.82684002857776   -1.51122874161408   -1.26383572478306
H          -1.15982669651446   -0.68519330459787   -1.65240388418136
H           0.05964856106416   -1.28599768811579   -0.91051396644906
O          -2.20518934257102    1.14967945003742    0.88806811559436
H          -1.28038044530720    1.32757026210767    1.15733889165734
H          -2.19448541099808    1.26373639275103   -0.07765870171110
O          -1.46262279051940    1.12871627294168   -1.76002586043288
H          -1.65967925368904    1.68886752989682   -2.51256211465766
H          -0.52616468524754    1.33223482227991   -1.50527524388406
N          -1.92930616862132   -1.44941556503551    1.12230622834539
H          -1.06945842260518   -1.52914571707482    1.73800003888773
H          -2.21214234743969   -0.42029930265817    1.12121706809770
H          -1.60242837796597   -1.65324307579352    0.13104575098464
H          -2.67751201492806   -2.06299576453951    1.42242166963672
