    26
        -50.46821234  Gyration_radius:  2.44287493464 Dipole_moment: 3.027
 S          -0.54340454645070   -1.25545050064818    1.32604855262668
O          -0.37235565743181   -1.55411885774272   -0.08263105399381
O           0.54892411894835   -0.44590398491326    1.84438420196580
O          -1.85479746137118   -0.71053110813641    1.61814556156315
O          -0.45772777914080   -2.63009825712197    2.10826891895199
H          -1.31862522350334   -2.98688510459673    1.92196816436710
O          -2.37922368405722    1.60611230894607    0.55002658072916
H          -2.24298526074617    0.72685213779976    0.98609655220668
H          -3.03894736011145    2.06342836297550    1.07341925614084
O          -2.05237247136666   -0.09313581079119   -1.66314923663100
H          -1.65852051772919   -0.70447503426308   -1.01665396197617
H          -2.33099559051309    0.67204262779475   -1.14526679305761
O           0.30387838304527    1.94686227372889    0.68699203664611
H          -0.65846322578587    2.01882941928522    0.54458105610691
H           0.41240400883300    1.15842430246916    1.25670323364256
O           0.38917583984005   -0.71697531622471   -2.58795724653724
H           0.35347325492800   -1.36534781676354   -1.86710894440432
H          -0.52552528352947   -0.37079879427444   -2.60446284277114
O           2.83791104539286   -0.73997951971984    0.61071475697959
H           3.48860618537108   -0.56365331993728    1.29241196324298
H           1.96593218343435   -0.75691002489988    1.07358211148813
N           1.84277758826502    0.96242085906793   -1.20495165185162
H           1.18660805623525    1.47824734965575   -0.54506309864897
H           2.40219982178457    0.31914141412744   -0.59565244181018
H           1.26470796138156    0.34042534158824   -1.86065630649518
H           2.43734561429265    1.60147704258974   -1.71978935848399
