    26
        -50.46652846  Gyration_radius:  2.55458245839 Dipole_moment: 3.936
 S           0.94779137831856    0.08630552716413    1.61969892505797
O           2.06940421259908    0.73537848808824    0.96226323121299
O          -0.29839380978600    0.82064293070356    1.37945540940896
O           0.81173410251892   -1.31519427529303    1.26528253213979
O           1.20469777125476    0.12258724553423    3.16495899657347
H           1.28636193987619    1.07992634121428    3.33648595475528
O           0.00337366475143   -1.53844734920480   -2.71387094236031
H          -0.59271809845883   -0.77118818885211   -2.86430361929041
H           0.82474441496272   -1.11116771593299   -2.42049767466981
O          -1.20372214685925    0.79626556395152   -2.27961387924133
H          -0.31635712288185    1.01117168127706   -1.95665895280101
H          -1.74638438060586    0.65838200587050   -1.48964364597244
O           1.53406297668498    0.45402326032627   -1.57881763673315
H           1.73592201144072    0.51844033376519   -0.61660304717953
H           2.25575898576054    0.90479013602697   -2.02156571301328
O           1.21089689541329    2.71459826858652    2.60621293633808
H           1.89295950339317    2.46598148225524    1.96769866800445
H           0.38079463704568    2.46384884070937    2.17644021345119
O          -2.41332476462616    0.02658563272801    0.14647685257820
H          -1.60747303861291    0.34736788304201    0.63805937329836
H          -3.16825966329368    0.39497321385640    0.60710940088446
N          -0.98070811051009   -2.20198088598939   -0.38719704918876
H          -1.76490499867666   -1.54250040800238   -0.23969314530089
H          -1.25824617865909   -3.16381802208577   -0.22870973617938
H          -0.58527504607364   -2.05137304666617   -1.37711473856411
H          -0.22273513508554   -1.90559896296219    0.30414731679998
