    26
        -50.47052960  Gyration_radius:  2.48014536099 Dipole_moment: 1.345
 S          -0.67451484409491   -1.56017459747895   -1.09285311166619
O          -1.25741037162810   -1.82923481304593    0.21616505175760
O          -1.47578133011554   -0.64571192221366   -1.88081366490611
O           0.71573419653296   -1.15552102330781   -0.98474242546117
O          -0.66765403735597   -2.93257977850261   -1.88520724674244
H          -1.54391182455909   -2.97809789174863   -2.25474912982044
O           2.81759190280293    1.86980605792807   -0.08394320062818
H           3.48840306421212    1.96899542607485   -0.76129673091056
H           1.96060054544368    1.90155850951190   -0.53707212527977
O           2.48532948317440   -0.60617772856662    0.98847026766788
H           2.08230570168092   -0.99234438685525    0.19191589886533
H           2.74321406196857    0.30107896378410    0.72593776503806
O           0.36910587832542    1.42710357683788   -1.31392380070838
H          -0.33143874722238    1.49532714935820   -1.96815164769302
H           0.53758547130111    0.46100187112543   -1.24067828185895
O          -2.95782007092195    0.39618339537746    0.06197191618345
H          -3.00526439605879   -0.40743902601584    0.58727411275283
H          -2.51442914820329    0.11132335370379   -0.76194124289951
O          -0.92994775187251    1.82045278650492    1.07325114959247
H          -0.40491217171389    1.91019551994590    0.25685601691992
H          -1.79847308559321    1.47019136429755    0.77250297335036
N           0.07286635790870   -0.41011341878809    2.00944095989166
H          -0.29224501566609    0.56719636198923    1.76639686416460
H          -0.07330044643598   -0.63174272400004    2.98777777596883
H          -0.45037939171305   -1.07681284947075    1.38527811332802
H           1.10474596992609   -0.47446417648309    1.74213375310360
