    26
        -50.47071990  Gyration_radius:  2.43990756164 Dipole_moment: 2.618
 S          -1.33791150152548   -1.15365174124872   -0.32495036112298
O          -1.63864043059256   -0.85480481990930    1.06849078422891
O          -1.69401106046365   -0.06808526011558   -1.20681451193803
O           0.03395498149594   -1.61296021586738   -0.49038024538480
O          -2.23718520860402   -2.38835047987792   -0.73399779178588
H          -3.10532868970343   -2.00040027720198   -0.74537426921685
O          -1.39611092877229    1.79974042839043    0.93714450030730
H          -1.81177941430803    2.03613392137932    0.10388351326474
H          -1.54648649275419    0.83865294052629    1.02048522295258
O          -0.04949404753454   -0.31248390860161    3.14899726359913
H          -0.71204028003797   -0.66118224704858    2.51881784580497
H          -0.35899261028792    0.56762224187978    3.37836204595337
O           1.19001603735788    2.11395469644270    0.23093123632072
H           1.02108281741230    1.96439837447224   -0.73544357567283
H           0.29228407881895    2.20822803532244    0.61153111338400
O           0.42366511788616    1.33672177987664   -2.15932079991374
H          -0.40933272855627    0.89661885369277   -1.90991674047441
H           1.00921505403155    0.61906892758405   -2.45592846003427
O           1.63954066586329   -1.09714311595090   -2.57806010688458
H           1.06419982846974   -1.39115564799649   -1.84623463588531
H           1.39081548544084   -1.61636632694472   -3.34394281091492
N           1.67697759679259   -0.25831112470344    1.10968128982793
H           2.64221389643962   -0.56393132452743    1.16092986730793
H           1.19707144520329   -0.29948334275824    2.04154331465177
H           1.59080868421701    0.76704586357689    0.73566666295376
H           1.12546769373285   -0.86987621035822    0.46389966868512
