    26
        -50.46402386  Gyration_radius:  2.50065782169 Dipole_moment: 3.421
 S          -0.19684456830293   -0.05760857409372   -1.92141631185953
O          -1.29146300096923   -0.08387517312160   -0.96366888149638
O          -0.17802353211916    1.08005827688357   -2.79954479795581
O           1.07453921688236   -0.32536405122698   -1.25975133370968
O          -0.45513595394480   -1.32372140051687   -2.86655531595785
H          -0.32283180039971   -0.96815694922029   -3.73984527533662
O           3.13970623127345   -1.58725454187656    0.13875754723575
H           2.54052998670196   -1.22740695898815   -0.53257184446355
H           4.02766682995429   -1.43575966357452   -0.18711915163534
O           0.08421325400145    1.78580264389055    2.10366395721146
H          -0.88134836091072    1.63862933613983    2.01561362343472
H           0.32233582401044    2.21183146701504    1.26187389923930
O           0.06989045853650    2.49402602882498   -0.54307895283492
H           0.11278241496440    2.01439558521991   -1.38727052298162
H          -0.76503288157441    2.96908922928474   -0.56165574599266
O          -1.41768009271066   -2.02305134331885    0.81757319944623
H          -1.40649550577981   -2.87543223304551    0.38049915170534
H          -1.46008250417588   -1.35077926755554    0.09875090835009
O          -2.35699462528533    1.02537658852189    1.27260815791574
H          -2.03227312676140    0.77321000559799    0.38966865529990
H          -2.70634016510702    0.21610947749110    1.65239100712595
N           0.82811503099182   -0.60125365672540    1.36101545000795
H           0.90827636873078   -0.41494538770228    0.32680456555721
H           1.71530376516182   -1.00979709421847    1.65284812226473
H           0.60820141871434    0.33959613754612    1.82252686797139
H           0.03898530810508   -1.26371849125990    1.46788305144002
