    26
        -50.47192579  Gyration_radius:  2.43585748196 Dipole_moment: 1.698
 S          -1.56070892197262    0.98549720801504   -0.87273359724819
O          -0.71756676072900    0.90824257433911   -2.05161284440302
O          -1.94722478687888   -0.29725873145873   -0.33775079790190
O          -0.97285023478564    1.85456977022226    0.15191963304708
O          -2.89532361110397    1.70055011033307   -1.33622836467144
H          -2.56765314500020    2.41076664077612   -1.87825003599133
O           1.52131931577746    1.92760336090476   -0.84767927560980
H           1.28890928310205    1.54758524428630   -1.70145479656392
H           0.65555065865830    2.09677366857825   -0.43445811343858
O           2.40875205728004    0.18988567808100    0.98356851461347
H           2.17101949587291   -0.66581921497790    0.58378955468075
H           2.28739466031447    0.85957369333033    0.27372803406388
O          -0.85728128934498   -1.75319170551826    1.62894761432152
H          -0.08299421702504   -2.08133852576492    1.13769881491743
H          -1.43200628241097   -1.34952198682075    0.94944443756691
O           1.30748381804338   -2.11725073687860   -0.05487640392409
H           0.74869896091839   -1.94027775657850   -0.86018323989622
H           1.82015404963670   -2.90184349166660   -0.25372150132637
O          -0.32874835926894   -1.69128818348343   -2.06137372034262
H          -1.18024732531031   -1.89209487666254   -1.65897370288550
H          -0.37465260191136   -0.72331574445161   -2.20926860546818
N           0.13845606408039    0.60191617953786    2.20545073992770
H           0.09671232794627    1.03219836780304    3.12165719734632
H          -0.30099346878857   -0.36761809696734    2.18515041154550
H          -0.37233392737086    1.17515605026095    1.48767178250745
H           1.14613425024421    0.49050047475308    1.84953825512070
