    26
        -50.46740477  Gyration_radius:  2.44308870008 Dipole_moment: 4.841
 S          -1.60985673199496    0.51817689336206    1.14547324552088
O          -1.65418275559126    1.07081812431678   -0.19914966457402
O          -1.85778136393139   -0.91069441971470    1.16511020055874
O          -0.39699571009145    0.89977811324711    1.85264369616318
O          -2.79290422954036    1.19043314569410    1.95590853271854
H          -3.57089970988299    0.82109039472344    1.55053609712881
O           0.76611237655705   -0.71781228734498   -2.43143368973665
H          -0.14754058518338   -1.03567588530407   -2.28184917342111
H           1.27707517210214   -1.01678439568982   -1.66622853615867
O           0.49905412491840   -1.71534457830029    1.97855157179201
H           0.62253733857599   -0.97661336210305    2.58251004138388
H          -0.42166134181258   -1.59097980017667    1.65960023244210
O           2.15294103807432   -1.25126755279415    0.00136025912031
H           1.51111136121243   -1.50545050358049    0.72040027166020
H           2.84390005287371   -1.91481826015171    0.00931580738246
O          -1.74633966876248   -1.22967460799020   -1.57350972664726
H          -1.82670179621196   -0.33193032648434   -1.20353393056550
H          -1.85604807028702   -1.80183232440343   -0.80788219069062
O           0.31293887944840    1.83186430071036   -1.90952566048992
H          -0.55318986277656    1.73655842945235   -1.47515450958661
H           0.48812659758418    0.94609481952041   -2.32105107681314
N           1.62311968116701    1.41142345893206    0.26186927444335
H           1.15786582340432    1.69858632647570   -0.68833183245078
H           0.82718794027295    1.29486074537841    0.95044892898895
H           2.05886528329200    0.48046313012497    0.13702821048855
H           2.29326614658799    2.09873045209648    0.58689361134464
