    26
        -50.46461353  Gyration_radius:  2.59042290987 Dipole_moment: 1.663
 S          -1.17321061593474    1.72329958172233    0.54744518321323
O          -0.51338234516793    2.42191543841769    1.62853704773353
O          -0.55345703656449    1.95796498030717   -0.75033202525554
O          -1.37296661263912    0.30914359949180    0.79789868452212
O          -2.63507605241498    2.35855057340349    0.45180293055717
H          -2.52446245985125    3.20918040079253    0.86466920677662
O           0.29731098861043   -3.52327404525361   -0.02412342723065
H          -0.33794624305965   -3.87735805466607    0.59993146856816
H           0.96465697904400   -3.04157285779049    0.50918779335973
O           1.98819138745602   -1.83026978191918    1.22445546216372
H           1.65070688490098   -0.97176291122177    1.53220380981829
H           2.70800976814626   -1.62777901288099    0.62265612571777
O           1.77265989013747    0.63144251919460   -0.96868595252522
H           1.07439416508392    1.29649164426157   -1.11085799504490
H           1.95631551038769    0.70175188444923   -0.01830694381190
O           1.55867301865777    0.84528550995371    1.77436649729726
H           2.09657430787479    1.19952832582068    2.48590226012866
H           0.74636495418673    1.40578850743321    1.75144663893538
O          -1.98971127770653    0.48104803865057   -2.44248983315213
H          -2.90044639966207    0.60045486139871   -2.16968810209719
H          -1.47155080430612    1.13038582410376   -1.92306253119822
N          -0.26374988231395   -1.11263519111468   -1.09799095183709
H          -0.73757484489304   -0.64780666153601   -0.27454821263576
H          -0.85970595870991   -0.89578254591375   -1.90951270072221
H           0.65495168157822   -0.61750838559186   -1.19544947960397
H          -0.13556902290604   -2.12648225149581   -0.90545494367775
