    26
        -50.46661907  Gyration_radius:  2.61640136639 Dipole_moment: 2.679
 S           0.96005132960385    0.70098282510290   -1.51911705935136
O          -0.20064952333194    0.22683175162524   -2.25149846223609
O           0.57590037642279    1.46232478151983   -0.33994912821895
O           1.89980376929378   -0.36360067281014   -1.22160611106459
O           1.73088817887696    1.72429025806350   -2.45334481657501
H           1.28277105508864    2.54977897416035   -2.29389944282501
O          -2.58981223846634    1.09674572895766   -1.58647982842418
H          -1.66781519917407    0.82664337143346   -1.80502505057586
H          -3.13458315231469    0.75133610174900   -2.29597301553502
O           3.01756032264037   -0.56043365950419    1.17887851619408
H           3.58239970836079   -1.32568368709948    1.05609160034598
H           2.61792534861402   -0.38601158341087    0.29994067642360
O          -3.18095577284034    0.41873362506499    0.93120187265912
H          -3.03731441633097    0.66159956599799   -0.01280875298536
H          -3.42700833887435    1.23147977569574    1.37526382566690
O          -0.02783729682437   -2.17135607137920   -0.89011238634437
H           0.83250640931959   -1.73414962767636   -1.03433103011843
H          -0.56238350188451   -1.85954263031897   -1.62785384161973
O           1.15545368369233   -0.65052599158523    3.09518515206797
H           1.88972056371227   -0.66599538388699    2.43824408183744
H           1.31224621206050    0.12218709097154    3.63998929566174
N          -0.61927542907909   -0.41966609632951    1.08242851359380
H          -0.49891600258561   -1.24329683158971    0.45007733844912
H          -0.17223544417525    0.39796157763311    0.59550512255016
H          -1.63152917967959   -0.20973331182904    1.21231085469703
H          -0.10691145213706   -0.58089987057030    1.97688207570865
