    26
        -50.46276875  Gyration_radius:  2.52140010048 Dipole_moment: 7.616
 S          -0.57584991417359    0.20608256781671   -0.53319047644775
O          -1.25327718234327   -0.66039560471748   -1.60278627964888
O          -0.28384424600292   -0.63970113302014    0.62869037700696
O           0.62977659812378    0.79905149178736   -1.08815716487491
O          -1.56428286572551    1.22560306112784   -0.15971480489105
O           0.75984867410029    2.57743694510738    0.86710700479456
H          -0.00053500068564    3.10975454094216    0.62421161152382
H           0.87185880385888    1.95437471941140    0.12075305908069
O           2.07020280400977   -0.17050863013939   -3.11191098615247
H           1.66410126193621    0.25262221864099   -2.32830408058162
H           1.84696963456589    0.38582499145975   -3.85987943709570
O           1.22267275453858   -2.73742354695420    0.05794771810866
H           0.72068659097207   -1.93592367694496    0.32151404954040
H           0.82669166131820   -3.47175730965188    0.52968738166856
O           0.50070514178053   -2.24781931540722   -2.47724837533154
H          -0.57128553012558   -1.33192329933244   -1.99261851230773
H           1.16905339522943   -1.62928329228270   -2.84421436863790
H           0.88787993578916   -2.57948142700412   -1.63922484911089
O           0.39590479833219    0.75067960543314    2.77822674346747
H           0.41065752099791    0.04760323546137    2.09696312351287
H           0.72049879593774    1.53790871010368    2.28972319795860
H          -1.10112792476999    0.88881434247107    2.67645237946794
N          -2.12626439603259    0.91740225722467    2.29455264051146
H          -1.97032573185141    1.05675299556929    1.21160206816548
H          -2.67407251910051    1.67310832841298    2.69200942890652
H          -2.57664307067765    0.02119723448731    2.44780854136434
