    26
        -50.46767839  Gyration_radius:  2.44073220649 Dipole_moment: 4.538
 S           1.42417359438250   -1.10738816177437   -0.53582023390119
O           1.79174013229218   -0.28365812944125   -1.66833004491116
O           1.88086031958377   -0.52392609118734    0.72195393676944
O           0.02637478177718   -1.47244542165596   -0.49650393657231
O           2.22659980628167   -2.47033394091017   -0.70649486488468
H           3.09743350610600   -2.16551120604546   -0.94146416136261
O           0.59496905443719    1.80587118391899    0.20475457891590
H           0.03232979215087    1.72420586676533   -0.58953955878806
H           1.20099033236183    1.04491755115602    0.20142353962472
O           0.69165003211769   -0.86718560279001    3.01217633007978
H           1.38540284219703   -0.69452319118749    3.65097835484881
H           1.13877009576193   -0.86121436532659    2.12862669243761
O          -1.32349221009475    1.47846585373392   -1.74451175801892
H          -0.99979593188279    0.72388252196406   -2.31177917800640
H          -1.50443537458973    2.20296438496694   -2.34465104592676
O          -2.28433238295467   -0.29559292200768    0.14347313427294
H          -1.53982380317410   -0.90165443125537   -0.04667743106614
H          -2.22015461239722    0.37874281312553   -0.55292288241614
O          -0.39039048852179   -0.58254726864189   -3.06170121892069
H           0.52305494057066   -0.43226613130247   -2.73170282835165
H          -0.70260197990111   -1.31384625940396   -2.51720517626816
N          -1.02790828417828    0.94123493167834    2.07147092031256
H          -0.35725044679785    1.44987798984335    1.41400011971351
H          -1.68510869082750    0.41396691507526    1.41205923163823
H          -0.45515006723128    0.23673027443074    2.59788049142676
H          -1.52390495894594    1.57123285376370    2.69050700291974
