    26
        -50.46849208  Gyration_radius:  2.56024033034 Dipole_moment: 3.361
 S          -1.04384527787342   -0.78566447147193   -1.63551071857300
O          -1.84240291678127    0.41541875337529   -1.43656095187798
O           0.18365426603546   -0.50415511200692   -2.35146468514071
O          -0.81066593813021   -1.53182796115654   -0.40831309617962
O          -1.91669896029516   -1.74527433638596   -2.54750149207109
H          -2.19557407370156   -1.19605552897065   -3.27452655688282
O           1.27555926854448    0.14842480486642    3.14718355594534
H           0.86599085156644   -0.45150458429101    3.77199349360742
H           0.59030734261328    0.83339807315655    2.93776736248042
O          -2.40899082635199   -0.05493038433703    1.18199201572701
H          -1.90194350843739   -0.81557819313882    0.85637089821542
H          -2.65265347472436    0.40388794170612    0.36726316773653
O          -0.63562925900993    1.70749776456561    2.20444348823683
H          -1.35991586357824    1.08824867999594    1.96688658082615
H          -0.38250095680863    2.13192101322198    1.37784228081000
O           0.15218794308027    1.87963960274587   -0.58706842348552
H           0.61766789687496    2.16270405211524   -1.37684743622222
H          -0.65230790736950    1.41067513043974   -0.91280780102547
O           2.71419654435255   -1.00654585103577   -1.67107161395550
H           2.99763643312737   -1.81884261019589   -2.09204050805459
H           1.82667890773478   -0.80507919662591   -2.03786158739763
N           1.34035608448273   -0.30238848679480    0.52386235738601
H           1.04237000966163    0.63735231218220    0.18157379103228
H           1.49383532804238   -0.25826883660378    1.56087745793128
H           0.54431596551498   -0.93793190718781    0.28402253695946
H           2.15837213142797   -0.60512067816044   -0.03050411603838
