    26
        -50.46668609  Gyration_radius:  2.42749944441 Dipole_moment: 3.697
 S           0.75167538687908   -0.29075982928556   -1.71464929428953
O           1.53481644959680    0.89594472828866   -1.41692900755385
O           1.28377221831874   -1.48848472195288   -1.10499686056972
O          -0.66296433855640   -0.09606890005485   -1.42328134411431
O           0.83474839865512   -0.51996347066926   -3.27788690810501
H           1.69522496329324   -0.91882846873266   -3.33600849029792
O           1.68396295819738    0.91862939564645    1.26957981021126
H           1.86079150094171    0.91056748396468    0.31104447380265
H           0.77412191675121    1.25080700930182    1.33826293956600
O           1.18963623000781   -1.65757063067677    1.52464502245763
H           1.57284463289894   -0.75458259877029    1.63389531358198
H           1.26227514688055   -1.80515750947358    0.55520368997067
O           0.40216864060234    3.23074712120770   -0.65124728381466
H           0.78581995932424    2.43352772096146   -1.06729291656260
H           1.14953914146400    3.75268520778057   -0.35431474051667
O          -2.25822755054396   -1.94458147773711   -0.51038335405201
H          -1.60766510313999   -1.35426463476054   -0.96255124609879
H          -3.11191273795442   -1.72585564876104   -0.88826537299485
O          -1.02260614333225    1.39690407114788    0.73738404062561
H          -0.78437900722261    2.29554327633486    0.45156036807523
H          -0.96356068139014    0.88438308214845   -0.09817054213775
N          -1.29868448483219   -1.08321724843951    1.82481874476861
H          -1.31830134680367   -0.06015243520408    1.68730271594100
H          -1.79196958706753   -1.52060242013042    1.00593050447307
H          -0.24238327548501   -1.39916021053655    1.75880171471282
H          -1.71874327747353   -1.35048887159480    2.70754801291886
