    26
        -50.47472245  Gyration_radius:  2.50607736744 Dipole_moment: 3.299
 S          -0.37077185167001   -0.95916617444655   -0.46981914319732
O          -1.08371231883626   -0.80729489038486    0.80351685636971
O          -0.47923281689424    0.26249387259384   -1.26609574228405
O           1.02504459633394   -1.30769421008007   -0.25340167316777
O          -1.02409915114349   -2.11451979629382   -1.25486476471194
H          -2.00224450131028   -2.01345063361972   -1.05105835751758
O           2.94253442603434    0.44835074815461   -0.76652255525799
H           3.24216787777465    0.40089928874711   -1.67522533927787
H           2.24006840156413   -0.23493347969127   -0.67688853114037
O           2.57841357266872   -0.80591331036209    1.88312805100632
H           3.26886518468804   -0.35831293229102    1.38214676831828
H           2.05225906973700   -1.27411567624661    1.20592169844835
O           0.95361509375829    2.17323399709065   -0.10473871865523
H           0.33215375963999    1.62838099872679   -0.63350810584652
H           1.83076990382598    1.82124202417861   -0.34890010395091
O          -3.37215809873398   -1.49116488784694   -0.45370822686666
H          -2.91898763743249   -1.24614936490009    0.36606709044809
H          -3.49941405109354   -0.64605361435931   -0.93582415978132
O          -3.01656613028631    0.83301231850677   -1.73347569065292
H          -3.11370718421508    0.93955013199450   -2.68116684628403
H          -2.05521270860606    0.71611212440766   -1.56859460796882
N           0.49022783927944    0.82530352403735    2.08332196734952
H           0.68041514371723    1.53354730212983    1.30123714184148
H          -0.23928684453071    0.16210821780824    1.68703645023380
H           1.36395327288741    0.25088553285580    2.21997308743628
H           0.17490516284438    1.26364886928668    2.94144348510765
