    26
        -50.46133671  Gyration_radius:  2.59963688944 Dipole_moment: 3.127
 S          -0.43262078455695    1.30585991834205    1.48021275839126
O          -1.54556821322658    1.05954794530341    0.57258923873207
O          -0.21352488613594    0.18252490729512    2.38023230751927
O           0.77603453741592    1.72652133729599    0.80409427769933
O          -0.86657372774547    2.52838148673361    2.39297789111829
H          -1.61408168799622    2.19088345772952    2.87729362948699
O          -0.70789431732282   -3.67260268768946    0.00587075076904
H          -1.35039977622154   -4.37375264809978   -0.10528713474311
H          -1.05328252113170   -2.90358547198681   -0.47025080802345
O          -1.03884759520794   -1.02554753029718   -1.01801336673124
H          -0.72832535878763   -0.57246404739451   -1.83674348400284
H          -1.39458277005236   -0.30856708894172   -0.45364180652062
O          -0.22748525312503    0.51592737667434   -3.02997639238453
H          -0.79150746069031    0.65605393872320   -3.79171326965863
H          -0.27519851001301    1.34807711907148   -2.49898880360086
O          -0.56420677936164    2.58722143594927   -1.38516575464806
H          -1.18080969499189    2.13721447829716   -0.78084990119783
H           0.24087283353410    2.64491494657000   -0.85398519819150
O           2.91430429499833    0.18635396942701    0.45419074124484
H           2.18975800198191    0.84641786830028    0.51418738692750
H           3.57415088692378    0.46038603539782    1.09269790991441
N           0.88384883429370   -1.52789829421134    0.73656340796626
H           0.24696628292429   -1.35184846366286   -0.09190879145993
H           1.82913976417851   -1.13135716965522    0.56066252590895
H           0.45536814425926   -0.97735039564294    1.53001636036633
H           0.87446576605841   -2.53131245352835    0.91493552511530
