    26
        -50.46907341  Gyration_radius:  2.47617619555 Dipole_moment: 2.906
 S           1.49539140123207    1.15018623463576   -1.19328792051406
O           2.27091045675926   -0.07211701139117   -1.01405511769277
O           0.69952221484929    1.13714884705097   -2.39735921695364
O           0.73809921870359    1.48256825631161    0.00467513577628
O           2.54815726060466    2.32516008307956   -1.36669910585069
H           2.85986115896811    2.15910452706272   -2.24981523086570
O          -1.88023004016242    1.65654713294929   -0.11239736454782
H          -0.89330386524366    1.64773300274366   -0.09299025555429
H          -2.14136838969583    2.57709964615859   -0.15340926794305
O           0.56630667399509    0.35505170879873    2.46189705590196
H           0.70130423570488    0.99744651531440    1.74258759172496
H          -0.40038114164325    0.15746748368488    2.44235099635686
O          -1.38881319257787   -0.40068380249424   -1.87822412079191
H          -1.87923230543795    0.28225370003476   -1.39477214054934
H          -0.59251174308549    0.07008809671555   -2.20272019316094
O          -1.06030743478088   -2.24603612374954   -0.09253872780725
H          -1.42491466582925   -3.05458819580453   -0.45382709005324
H          -1.16259298789415   -1.55361360681808   -0.81288362813072
O          -1.93310293429979   -0.32511724747806    1.82093136835582
H          -1.78013575135333   -1.09835875936848    1.25972290116258
H          -2.10902929081368    0.40793888178823    1.20836500987116
N           1.36602812449535   -1.56199459396677    0.90427453763400
H           1.10611724864656   -0.84829986320322    1.67234278104915
H           2.01089905098438   -2.26835508650303    1.23906656631919
H           0.48553416255018   -1.98409273949047    0.54649472755506
H           1.79779255535415   -0.99253707610136    0.11227070869554
