    26
        -50.46936544  Gyration_radius:  2.43009385233 Dipole_moment: 1.244
 S          -0.50561734637875   -1.68428923887590    0.64030880449097
O          -0.52825128706105   -0.61901551592945    1.63469009997469
O          -1.49126515692766   -1.42808024170531   -0.40547385888921
O           0.81285506321477   -1.95413221928629    0.12470159308772
O          -0.97560191979413   -2.99555584392543    1.38495291327704
H          -1.83071197717098   -2.74657898480203    1.71966166917996
O          -2.83042209099737    0.78281056423658   -1.10051320740109
H          -2.48881539695871   -0.09518487753691   -0.83375211555886
H          -2.76659148953677    0.80321586452735   -2.05772927703789
O           1.20666087140776    1.38659582445789   -1.42860454812422
H           1.89672518237903    1.01447353267843   -0.85232433709119
H           0.85722367499458    0.62439112538997   -1.94281620347954
O           0.18427536233201   -0.89468015001803   -2.40115433245449
H          -0.50375758120127   -1.12243884981874   -1.74566426762081
H           0.87822454041248   -1.54063831995163   -2.24598020298962
O           1.18784977475932    1.52840247811904    2.35336134308490
H           0.63518869119164    0.76429029442988    2.55134144558748
H           1.87136803301637    1.18421426140636    1.76309424531467
O           2.59398519139017   -0.04399565545340    0.43905247878838
H           3.45411450156001   -0.45799135652472    0.52207377876172
H           1.93954080435365   -0.77823027353996    0.37695902820948
N          -0.73303399706898    1.68054005076103    0.30528236339459
H          -1.64128755589103    1.63225867734745   -0.20238173413083
H           0.07171402778859    1.67079788093259   -0.40622632748582
H          -0.64304297451906    2.48260159060281    0.92338588933549
H          -0.65132692525506    0.80621936251442    0.88375474973094
