    26
        -50.46995133  Gyration_radius:  2.48113265272 Dipole_moment: 2.717
 S           1.33322940351956    1.25749027047368    0.78303023532795
O           1.38239011284255    1.09080440692117   -0.67248707476458
O          -0.03182805880958    1.04432925004384    1.27562814284946
O           2.30467600126995    0.46310673895697    1.47526411973333
O           1.65714040892963    2.77819288092838    1.05697528647187
H           0.97960059686236    3.27450144433314    0.59471353005211
O          -1.54669386447013   -1.68918999421396   -0.96642091144304
H          -1.96302511858073   -0.84988115712224   -1.24641817599571
H          -1.51484807871913   -1.67056059060909    0.00550762544419
O           1.73420726519144   -2.13373026964832    1.18573638752649
H           0.83467021348302   -2.12368492468899    1.55290649578084
H           2.11086273105845   -1.25916124833523    1.41363508532473
O          -0.88405216441701   -1.37964808186787    1.70183965578000
H          -0.57272936445769   -0.44993718918694    1.57162061827101
H          -1.37906865465804   -1.38126001918648    2.52234225284365
O          -0.81108984711892    2.59975281795461   -0.66863692717825
H          -0.04505637857223    2.26711462720092   -1.15970734716957
H          -0.77003769978899    2.09262067507510    0.16681912664504
O          -2.55883317382309    0.74604111225922   -1.62783457489119
H          -1.98108744746520    1.48782737142437   -1.35134722452159
H          -3.46064719647796    1.03367896375027   -1.48234662247229
N           1.04784502008929   -1.45309249022756   -1.25729555858879
H           1.22900669718964   -0.42063004925595   -1.15551179203450
H          -0.01172234917083   -1.60268805325884   -1.27515406244236
H           1.49994933755892   -1.82947059203722   -2.08253570863211
H           1.41714160846328   -1.89252591964808   -0.36032257190586
