    26
        -50.46866311  Gyration_radius:  2.48759119507 Dipole_moment: 4.329
 S           0.58413195596688   -1.40248766812168   -0.68667070275604
O           0.98437011878238   -0.02586296913686   -1.00609446843760
O           1.10161183528783   -1.80316352357423    0.60525943643477
O          -0.85918806028036   -1.55206216320489   -0.79765465612175
O           1.20445734498962   -2.32696750752006   -1.78485478372954
H           2.16326972044629   -2.18307516268923   -1.66448972033385
O           3.39493704413623   -1.26785674195288   -0.74450661724252
H           2.91407986240628   -0.44872217938186   -0.92581439688441
H           3.02639482388899   -1.58655392975172    0.09110663716566
O           0.20699368155284   -0.02014449636943    2.39791457697987
H           0.62442164157913   -0.69088150304382    1.82162307293239
H          -0.73813445242776   -0.19976147755810    2.34996716339378
O          -2.04031883363499    0.41365864335099   -2.24660120022914
H          -2.16803397173522    0.13280740749063   -3.15317850327940
H          -1.61766939441625   -0.34139438667876   -1.79524682017624
O          -2.28580573079038   -0.33846918738132    1.02604964483892
H          -3.21440592653139   -0.48319011771290    0.83454689855843
H          -1.78722160386587   -0.93427782934671    0.41729155130745
O           0.57949534668331    2.57063943994305    1.90719486300684
H           0.49066170996979    1.64533401242792    2.24049230722671
H           1.52035665770637    2.72756474520564    1.81484963351722
N          -0.82939950946654    1.65577324851089   -0.14363126435055
H          -0.08837211302757    1.01693840766662   -0.56072469501610
H          -0.35611217457235    2.26732256343673    0.56420424685562
H          -1.29959997249929    2.14224324840431   -0.90236954886691
H          -1.51092000015489    1.03258914698864    0.34133736520085
