    26
        -50.46308813  Gyration_radius:  2.56606937771 Dipole_moment: 3.019
 S           0.70694779107776   -1.24492298882994   -0.82314286371153
O           1.30979710775435   -0.55161679687772    0.32058820081921
O          -0.75028174091808   -1.35533257254575   -0.60923723346153
O           1.01627439961675   -0.59116459968714   -2.06974164481132
O           1.27782006790570   -2.68137866830761   -0.85917105644623
H           0.77517764930459   -3.14879902298952   -0.13686750694235
O           0.07878964402492    1.42498024511675    1.52088195323953
H           0.64840060200272    0.77363520490558    1.04629653138920
H          -0.06788992543927    1.04161256455578    2.38892841057583
O          -0.31127695385567   -3.42381418446448    1.03911430490339
H           0.00261367866491   -2.91789820659157    1.81524958475511
H          -0.90268604359153   -2.82056152859392    0.56377075235345
O           0.81911754476198   -1.58247315277298    2.68088608670993
H           1.64424825012785   -1.83807326681860    3.09641177703996
H           1.06328499891112   -1.18026397783334    1.81432242660904
O          -0.30895375825588    3.63277594180244   -0.29103132871587
H           0.14689802836868    3.29978629803322   -1.07150223424820
H           0.12704114368275    3.23186756500462    0.46748719686298
O           0.09102957949318    1.79652039666249   -2.47859790248039
H          -0.00376055735383    1.89129846258443   -3.42774992913165
H           0.54258898882693    0.92434472473830   -2.33967885961704
N          -1.61707654418937    1.07241381623096   -0.53080152510608
H          -1.38828983152346    0.02681451054311   -0.59374632207031
H          -1.13903135225314    1.53500131684362   -1.33860594175197
H          -2.61259489146369    1.26616458779679   -0.52446640099877
H          -1.14818787568315    1.41908333148640    0.34040354422836
