    26
        -50.46181731  Gyration_radius:  2.67634435734 Dipole_moment: 2.028
 S          -1.41874830823658    0.11324088292608   -2.02818793698417
O           0.04385684606460   -0.06652540051472   -1.99838909668208
O          -2.10029928431796   -1.16329248318023   -2.05042559099040
O          -1.85424878622862    1.01114185974265   -0.98813327521271
O          -1.73624929602669    0.80943669071470   -3.41874957595034
H          -1.77090378784163    0.05813289587128   -4.00230021346544
O           2.61553432054735   -0.56814341082438    1.19464024334727
H           2.60503033599929    0.14839211390940    0.54179633596063
H           2.36582808525039   -0.15572203927269    2.03851862750159
O           1.25954217985520    0.75810380271946    3.20216736730419
H           1.41557243015847    1.40420346444868    3.89128857440065
H           0.57429775551027    1.12735701315620    2.62236889124885
O           1.78306157813541    1.43225461433090   -0.68232697914249
H           1.17295320331008    0.90575934658212   -1.25044944750662
H           2.25473874672581    2.02003983983173   -1.27341104154002
O          -1.98348468389122   -2.67587608046324    0.11775909517676
H          -2.84828164352196   -2.62842202728563    0.52760530452556
H          -2.07176842356344   -2.21224140992232   -0.74667823701978
O          -0.33449475627388    1.55800641518927    1.08904172941029
H          -1.05122811936025    1.52639749170024    0.42012588474918
H           0.45848614316090    1.77942475711067    0.57132063545680
N           0.12302967655429   -1.06704955038658    0.46293636252512
H          -0.21586695441362   -0.19853892634929    0.92682665585656
H          -0.54628504095671   -1.85004588637145    0.59300544786734
H           0.15347731283851   -0.84392570240696   -0.55953194122990
H           1.10645051051812   -1.22210827125556    0.79918219039003
