    26
        -50.46934320  Gyration_radius:  2.46449564467 Dipole_moment: 2.647
 S           1.10805279215321   -1.07932358017944   -0.88010573127866
O           0.41378950594806    0.13041312755827   -1.28940855737147
O           2.47208447106167   -0.86711431974381   -0.46954245499719
O           0.33551556209240   -1.81734426229253    0.12159931299011
O           1.15747030228681   -1.99575937757499   -2.17471675988353
H           1.94175322734817   -2.52371449784031   -2.06030233506438
O          -1.77018399391173   -1.60653434558615   -1.49606479104005
H          -1.11047606047344   -1.91244433746429   -0.84946324006336
H          -1.27750281143875   -0.99854091035238   -2.05644992890806
O           2.52064807925287    0.92405767510429    1.51614418845848
H           2.31705836980810    1.69973420427905    0.95213066636305
H           2.74328129301139    0.22583767264450    0.86860592219115
O           1.43850159827563    2.50335898050633   -0.36817897156682
H           0.59054785847198    2.88316822888336   -0.12122903025369
H           1.22763720546435    1.70483452634464   -0.88141765305587
O          -3.42270276308008   -0.14844359497763    0.03259394238825
H          -2.90356208538247   -0.77898467452980   -0.51791972928094
H          -4.22682529491503    0.03461485720432   -0.45464051279598
O          -1.30714758278391    1.45177630738273    0.34417140842550
H          -0.78468510399926    1.05267761163588   -0.37740576227486
H          -2.18120019140860    1.00766881798652    0.29630140032228
N           0.13103520090307    0.01848339955260    2.01041916478446
H          -0.52721843695891    0.69196720644949    1.51126803093009
H           0.15893076168464   -0.84443170295066    1.41432770584602
H           1.12695050696937    0.43054967251574    1.97317426372700
H          -0.17175242037712   -0.18650667455855    2.95610943140872
