    26
        -50.47133009  Gyration_radius:  2.51355461144 Dipole_moment: 3.678
 S          -0.14075515817044   -1.16845756349328   -1.41102869519420
O           0.61605503708829   -1.16239493198045   -0.15368759866069
O          -1.51612818621981   -0.73202164896049   -1.15249208953723
O           0.50488499857611   -0.40081828978922   -2.44200280720084
O          -0.20924465107069   -2.65657895595518   -1.88566442865468
H          -0.71145270647320   -3.08262464223147   -1.16981589925003
O           2.42334532349599    0.84068080911749    0.19738724841388
H           1.94906136737222    0.00712071105164    0.02480522397825
H           2.02074763552460    1.47842737402081   -0.41199225079382
O           1.72499453954659    1.30819111704292    2.68467129374044
H           2.34351405049638    0.83735399692639    3.24486474041380
H           2.09180248510906    1.24310125567483    1.76169383819917
O           0.74577060079507    2.07487584556330   -1.64370128811877
H           0.66496190760866    1.15841650715813   -2.00703274946954
H           0.93213047760017    2.64104429311324   -2.39474041242511
O          -2.01532783204127   -2.95228997028423    0.09031075292334
H          -2.84463945667821   -3.34761661353641   -0.18707113701003
H          -2.00654799111882   -2.04060527667476   -0.27548411182161
O          -1.54130627930157    1.73356079090392   -0.15747024258402
H          -1.73403370695963    0.90819876594215   -0.64699605792192
H          -0.77362335209460    2.11335536149351   -0.61948920150624
N          -0.52021661059535    0.23538347638247    1.74329325760958
H          -0.99892029082636    0.96442991787596    1.12955847553478
H          -0.09530179855000   -0.44887642726293    1.05338923933218
H           0.27244271611431    0.67873088160529    2.27543577436937
H          -1.18221309922792   -0.23058677370321    2.35325914563289
