    26
        -50.46688922  Gyration_radius:  2.50396463452 Dipole_moment: 2.169
 S          -1.85456297164430   -0.05614688253317   -0.68195147940981
O          -2.08348247662965   -1.44073032932241   -0.33475203060462
O          -1.34225338619624    0.70539742295673    0.46033588550285
O          -1.01680560866090    0.13374272194613   -1.84715158397226
O          -3.27701778066533    0.55050136637963   -1.02724414054665
H          -3.86543690966701   -0.06456212848872   -0.60119703453135
O           1.12459130058462   -1.44283376980910   -1.82860779104504
H           0.25088096636716   -1.04629403193248   -2.01923665456315
H           1.76429989478556   -0.81289241463522   -2.17438453895321
O           0.27934853635705    2.73157175479660    1.12175251303929
H          -0.36588253551565    2.03924081597873    0.87228515089178
H          -0.16889445604436    3.29846771886452    1.75019195958736
O           1.29081172454923    1.51416105604268   -1.33867193757400
H           1.03762605961582    2.32145896960631   -0.88040660931417
H           0.44926993093267    1.10117266958005   -1.60184602803019
O          -0.80740877846572   -2.92394607269165    1.50822433237923
H          -1.37475030472930   -2.42646210306794    0.88336788620767
H          -0.80782342091389   -3.82950731118751    1.19461237883691
O           2.50744370033056    1.08940255887439    1.14851434076838
H           2.54875950180734    1.18938952186489    0.18514279198413
H           1.86030482434265    1.76525907014065    1.41308573257008
N           0.78850848190713   -0.89273995373573    0.78133794576735
H          -0.05398170422313   -0.27782598712023    0.72318537773509
H           1.01483373118230   -1.20669938166603   -0.19735950709551
H           1.57877629450456   -0.30293513600241    1.14533905675970
H           0.52284536608952   -1.71619014482996    1.34543402360193
