    26
        -50.46248443  Gyration_radius:  2.65774032569 Dipole_moment: 6.545
 S           0.76707261387230    1.63515504470606    0.50256168326407
O          -0.45407504176950    2.11263784169230   -0.12985496987817
O           0.49662199147100    0.99980185221315    1.78470516153263
O           1.56346784611115    0.80848441654760   -0.37929856178526
O           1.63516843407266    2.92189189556039    0.81499875635355
H           1.01745422841176    3.46780347994316    1.29021944254477
O           2.26475749762577   -0.75062364009556    2.82915041641244
H           1.69650155228603   -0.03563710718430    2.48111649028991
H           1.87953696785137   -1.00791461360160    3.66819076709218
O           1.79193860217145   -1.78638143743326    0.33035271451585
H           1.84250354218473   -0.85509431023958    0.04194731754389
H           2.19334363390205   -1.76369531515497    1.21358704595083
O          -4.00962506226069    0.10210348414049   -1.96788276556822
H          -4.65108814654601   -0.26674749782539   -1.35680720355079
H          -4.23808683885933    1.02385190531279   -2.10709033609834
O           0.97374801723719   -0.80091089112781   -2.46948022714617
H           1.31615302603799   -1.61135101878820   -2.07899991992508
H           1.36551733713443   -0.08552259670114   -1.93673858738730
O          -0.72548142726233   -1.29297394965211    1.07222235985448
H           0.12492824222456   -1.72528540137904    0.82459265327775
H          -0.44018191420626   -0.46727571387006    1.50713093672654
N          -1.30505484466932   -0.13125413258646   -1.21057073639152
H          -1.22897838536917   -0.72260150602839   -0.33002062940993
H          -1.05224854534932    0.84178324330727   -0.90067196821568
H          -0.57301833965565   -0.45525617366629   -1.88362992370343
H          -2.25087497664540   -0.15498784809094   -1.60972990630010
