    26
        -50.46336324  Gyration_radius:  2.49331909435 Dipole_moment: 7.922
 S          -0.01282530860899   -0.86996677282532   -1.89333776757712
O           0.27230928538369   -2.07014334993296   -1.11108741273037
O          -1.35292929525069   -0.37017741064062   -1.56947926569025
O           1.00350791029796    0.13864564955555   -1.81177824149907
O          -0.08313415382041   -1.34275529250440   -3.39930676940240
H          -0.68412036341406   -2.07812910508968   -3.34897095415719
O           2.03429819449232    1.24007887474745    0.44525830772198
H           1.84449523843592    0.82584169149534   -0.41347034920881
H           1.21813726212089    1.74202164711552    0.66699210822433
O           2.05901332542365   -0.41496833672663    2.40754918750412
H           2.18521182771919    0.20729670705767    1.62297546212276
H           1.90844579841936    0.15910128054423    3.16081043354048
O          -0.79221360988597    2.26205864510738   -1.79890460546835
H          -1.14108675973902    1.35434608560855   -1.80972772047053
H           0.11892415623687    2.16462795510889   -2.09299416111190
O          -2.01613207080790   -0.11118350031179    0.92007492582115
H          -2.96706937361485   -0.00033032950424    0.96604689870515
H          -1.79665371945277   -0.20013948991685   -0.04633039517855
O          -0.42109441757486    2.24470286982584    0.88937268643753
H          -0.60498797378323    2.47320366422263   -0.04524583212832
H          -1.00749862507410    1.50122385350930    1.08297222785555
N           0.04242486537944   -1.78361600786095    1.45631450846093
H           0.87504671637513   -1.25875490795988    1.88311280243077
H           0.22362638183507   -1.94099997361781    0.41327494669712
H          -0.09588487233729   -2.67516550798042    1.91997174231260
H          -0.80981041880734   -1.19681894918209    1.50590724676951
