    26
        -50.47003581  Gyration_radius:  2.39730788122 Dipole_moment: 7.084
 S          -0.05071947300910   -1.18746746773866   -0.91569121029663
O          -0.91385631401204   -0.00192865663300   -0.93513056849781
O           1.27109796036169   -0.80960250166509   -0.40601514292913
O          -0.65314198692142   -2.23969177353999   -0.11216619965580
O           0.10797361496978   -1.71243619146121   -2.35226298232989
H           0.79400688110598   -1.10127508346605   -2.75668679456341
O           0.11885373438151    2.00725075488382   -2.39091308347680
H           0.31346340384835    2.62628826134239   -1.68173267668728
H          -0.43347608434927    1.31157073769818   -1.98732866110298
O           1.42254088246105   -0.41725031167248    2.14763693286628
H           2.19822508374769   -0.85958648690256    2.49548705787852
H           1.42810834558351   -0.58972322399028    1.16717460185508
O           1.89271721728882    0.04448889408325   -2.88629875848125
H           1.36634509443247    0.87180991252438   -2.91614677938681
H           2.12279358599911   -0.08820290777459   -1.95457825256597
O          -2.35267324302759    0.99204375999434    1.15960083069580
H          -2.24042623349844    0.65841480210343    0.25286309996362
H          -1.64474099122910    1.65651798751680    1.24010147669995
O           0.20525835817085    1.84780312050633    0.75837910221926
H           0.84809166394788    1.45430149223573    1.35599072676702
H           0.00245667331416    1.15965017099183    0.10079757485578
N          -1.17374637026092   -1.13316771438742    2.15899557586331
H          -1.74433672973584   -0.26785972493074    1.89389041451210
H          -1.62570883661456   -1.68295390776676    2.88146332426582
H          -1.04876661254179   -1.69554993745406    1.25232606282591
H          -0.21033964448373   -0.84344402446048    2.43024434873782
