    26
        -50.46798625  Gyration_radius:  2.53155921508 Dipole_moment: 3.744
 S           0.29674910553750   -0.63472958190806   -2.19201774272724
O          -1.14347978037057   -0.48417218290555   -2.13908550080559
O           0.97109827452463    0.58216180134647   -2.60544313762318
O           0.84398237397430   -1.18824540357648   -0.96217137325707
O           0.59124687300508   -1.72065233971452   -3.30848915667522
H           0.13392871330223   -1.33810062429946   -4.04898198610882
O           2.00510826824479    0.44158742518104    0.83515046720624
H           1.71451660648878   -0.24923939151785    0.20979237127197
H           1.74828526170411    1.27128523560279    0.40327252223562
O           0.64623213740907    0.35529774581335    3.06583402362822
H           1.24374739340969    0.32360284654434    2.26707539284812
H           0.80049027431769    1.20866442523916    3.47271686607610
O           0.81929306590620    2.36536165900061   -0.75324484569779
H           1.03501943710220    3.21789328013078   -1.13470398521366
H           0.91627107536766    1.70506448689032   -1.49342652654713
O          -0.68741007435837   -2.60121915682484    0.57886869554862
H          -0.04601786043318   -3.11803565862239    1.07092476655079
H          -0.16385263701106   -2.12807578148686   -0.11588664769085
O          -1.65303428489560    1.29226965749676   -0.29529898851477
H          -0.83722945933969    1.82169884658567   -0.35485533886677
H          -1.59063759060242    0.65257306511668   -1.04433417152914
N          -1.54600090840480   -0.35599630906089    1.72774300540881
H          -1.63045858135129    0.34826832109039    0.91820595223440
H          -2.42077245541615   -0.42173261377447    2.23550289676552
H          -1.28908528361655   -1.29032231272169    1.30798852716128
H          -0.75798993452252   -0.05520745963603    2.35486390431355
