    26
        -50.46163606  Gyration_radius:  2.55634098783 Dipole_moment: 2.246
 S          -0.40989862701032   -1.19624666854441    1.95451845152685
O           0.93858578141793   -0.64717563204770    1.81983542324247
O          -1.35116499233055   -0.21506748533282    2.46108746990776
O          -0.81485242076300   -1.85718151012117    0.73579911525255
O          -0.32748379771453   -2.31948886799769    3.07834643781284
H          -0.42553093122010   -1.81123485712278    3.87728018001169
O          -2.38100727233925   -0.46015018325036   -0.86923195986922
H          -2.33503759473196    0.39397841137171   -0.41004029392691
H          -1.97210908420164   -1.09662041891365   -0.24549111209302
O           0.33120126287284    2.09919833199644   -1.28031656524556
H           0.08627334774521    1.38921692010916   -1.88946550018748
H          -0.28950082875527    2.02357834610933   -0.53535236326678
O           2.80782548580411    1.45051218711270   -0.63383348364412
H           1.94951436464329    1.85432430573982   -0.92129633845278
H           2.89815081172563    1.66532557935087    0.29701883013280
O          -0.31968985997557   -0.40274893565150   -2.41946495120928
H          -0.50072976596674   -0.91069305865347   -3.21066282676940
H          -1.16686481340167   -0.42902449509648   -1.87392740497914
O          -1.55804760697278    1.66731789069899    0.69546996328386
H          -2.03244227610171    2.39109496223136    1.10793807727523
H          -1.44136580993885    0.97969060508960    1.40035170359407
N           1.67030122328448   -0.93700947555291   -0.64435313104154
H           2.18462151576579   -1.79396340615402   -0.81286953404603
H           2.27802434739128   -0.07457699620846   -0.74253752523814
H           0.86429820838554   -0.85173025378194   -1.30460232917419
H           1.31692932267558   -0.91132531503841    0.36579966733666
