    26
        -50.47269146  Gyration_radius:  2.39719809959 Dipole_moment: 3.968
 S           0.74521242705848   -0.77739749698970   -1.35352729374669
O          -0.68511206586314   -0.88596574001295   -1.07899496517223
O           1.27118617461406    0.46904796093441   -0.77031700882058
O           1.48604927662386   -1.93252941927534   -0.93109523783329
O           0.90096537160874   -0.64325971175543   -2.90749621167404
H           0.42516889547319    0.17682054005613   -3.10622350923958
O          -0.11543895101542    1.67964963503269    1.17355681606031
H           0.51881748733927    1.34664687276336    0.50642041697953
H          -0.96842882674467    1.70076531978085    0.68102879953190
O           2.31593605192198   -1.12686518924745    1.40355547709249
H           2.07377355256988   -1.59164625856956    0.56792043382416
H           2.64937264968722   -0.27625572122129    1.10362642741816
O          -0.01757686275729    1.88226380043890   -2.53222077966489
H           0.50930778666020    2.59202699599710   -2.90464358783231
H           0.49894297914588    1.51403986766160   -1.77963834412045
O          -1.82378704837541   -1.87373223573796    1.06080630829718
H          -2.69472661872370   -1.47728209195001    0.98143234642018
H          -1.37206594545518   -1.67298664775772    0.20800017387072
O          -2.08924595048239    1.30803142394884   -0.57586873459675
H          -1.87169448165037    1.87175130383021   -1.32502808397139
H          -1.67269626176242    0.44791614004666   -0.79718333604724
N          -0.02461343172794   -0.55410002868044    2.50962219906344
H          -0.13000899583015    0.43511357720896    2.10362224780430
H          -0.76554448458144   -1.15626676730245    2.06295429320581
H           0.92549635891300   -0.88879807107941    2.17867713959634
H          -0.08928909663175   -0.56698807809138    3.52101400356212
