    26
        -50.47523103  Gyration_radius:  2.4212878276 Dipole_moment: 2.923
 S           0.48877772229168   -0.93692584205423   -1.53241493428990
O           1.16298558158165   -1.22147963222135   -0.27227432772515
O          -0.61739164599931   -1.84256963569307   -1.76630247216104
O           0.12313080371776    0.46175884730582   -1.65272968263411
O           1.54422073416201   -1.20586164673022   -2.67523135929233
H           1.64233847116412   -2.14795523127868   -2.60095632233981
O           2.18347049860226    0.88239908504053    1.04194060064037
H           1.99553180157032    0.04146703049522    0.57852693551929
H           2.26727395735377    1.54080626822251    0.32539139128198
O          -0.52594910685513   -1.71369385380688    1.74920142602221
H          -1.36528875646347   -1.74487502637495    1.26095801726232
H           0.16571452057163   -1.71595229445637    1.05649582591500
O           1.93436463558305    2.34805690583609   -1.20950582230495
H           1.49559915116357    3.18064706474445   -1.39039333099518
H           1.31512524542536    1.64611809596822   -1.49825835090272
O          -2.53712701333362   -1.34533943263143   -0.10070443065191
H          -3.31915100184960   -1.82755646902198   -0.37379903458605
H          -1.84131222506980   -1.54716804225215   -0.77939646888786
O          -1.76342328014508    1.29026883557567    0.03233146875044
H          -1.10433850563151    1.12654552518695   -0.67304072579060
H          -2.29704348031292    0.47801307891635    0.04178682930513
N          -0.19667085050953    0.87518106789011    2.11947169444591
H          -0.34600110763244   -0.17353775752297    2.18748910445157
H          -0.85779657564870    1.20536922757665    1.35913589799076
H          -0.35610162992026    1.34537116809474    3.00226239082245
H           0.80906202619398    1.00091266318131    1.77001567015925
