    26
        -50.46724812  Gyration_radius:  2.50124086049 Dipole_moment: 3.238
 S          -0.59934209005697   -0.84985554715700   -1.37384200949031
O          -0.93794834409107    0.56715506326436   -1.27816582579701
O           0.79665577049095   -1.04621648858605   -1.73272875464002
O          -0.99460421764987   -1.59581063105343   -0.20743739876274
O          -1.45135814960941   -1.41210106616331   -2.58479208559006
H          -1.14777142647283   -0.86405150292235   -3.30061176920348
O           1.14786016958020    2.07895179273172   -0.54252696341096
H           0.34253275393177    1.65049405054757   -0.89423767411015
H           1.78318840095398    1.98707032090007   -1.27250436810032
O           1.56174491886093   -0.22713569536355    0.70659150248978
H           1.57394914966454    0.70479406285992    0.37481862264395
H           1.31209965526541   -0.74772195739608   -0.07689465020004
O           2.45365452743771    0.86469869336756   -2.61646359067218
H           1.84348645944454    0.13809393255888   -2.37454983432604
H           3.33374113859415    0.48705298210145   -2.58067816423573
O          -1.87253365636204   -2.22391669735480    2.17921437727526
H          -1.74298743647211   -2.05353881395625    1.22236405759016
H          -1.52171944575721   -3.10337552107108    2.33154197094735
O          -1.54544568965070    1.83522531869095    0.96101219806972
H          -1.52168015160146    1.32198269106166    0.12270827225794
H          -0.93059168556933    2.56089670474743    0.81507038889469
N          -0.37456525418073   -0.01451311717235    2.45792240843223
H          -0.93047251265956    0.75296946426955    1.98525043967834
H          -0.96897269786705   -0.87745994685058    2.49707249919912
H           0.45263710851793   -0.20096594243578    1.80170360127621
H          -0.06155731474311    0.26727785037986    3.38016274978496
