    26
        -50.46794315  Gyration_radius:  2.46427658574 Dipole_moment: 2.604
 S          -0.02399332182729   -0.62248612902516   -1.73554303663848
O          -0.71171355512297    0.57996560107130   -1.29044021581806
O           1.38781147416766   -0.43297426372046   -1.97715561884591
O          -0.28657123511083   -1.74174690334890   -0.84048322055070
O          -0.67577967958446   -0.98500999759788   -3.13214837376526
H          -0.03164417334060   -1.56997785486317   -3.51755638782032
O           1.95717470547141   -1.54100032690787    0.59222605965970
H           1.14427366918829   -1.69446473918839    0.07396164622441
H           2.62078591480060   -1.32398248305102   -0.06770206243812
O           1.61838890911277    0.82629296625482    1.86420035660425
H           1.87736775058838   -0.08307584699275    1.61080375963790
H           1.82725136737008    1.36218799338520    1.06945643938637
O           1.74929134001138    1.84474555307706   -0.62085263317978
H           0.92546414663953    2.28472763088255   -0.84304473180253
H           1.75461629206102    1.03536506893243   -1.16727368787642
O          -1.20277745404903   -2.16836237170458    1.64855383579712
H          -0.43119573941265   -2.56693555513933    2.05878776637905
H          -1.02430267808831   -2.18718452942381    0.68889474055809
O          -2.60798651276301    2.21847635527130   -0.03943935085965
H          -2.05633706867374    1.74210794382257   -0.67635478696704
H          -3.30678831156181    2.63621159282524   -0.54395248535212
N          -0.91775440749078    0.48609750254469    1.39510037118397
H          -1.61310460037825    1.18238367891252    1.65689593741051
H          -1.17983536542115   -0.48051006569169    1.69504068539321
H          -0.86408371766531    0.48191132362182    0.35158540239631
H           0.07144227106350    0.71723785605537    1.74643959127576
