    26
        -50.46355422  Gyration_radius:  2.69972969837 Dipole_moment: 2.107
 S           0.03251300756639   -1.00052901260288   -2.14822576843276
O          -0.24519336913684   -2.39445272493569   -1.87203869713031
O          -1.17648443755546   -0.20506081650338   -2.27178640241844
O           0.97717792689962   -0.41779976228239   -1.20074751638392
O           0.75869022099383   -0.94011575880500   -3.55578087324440
H           0.09840085604174   -1.30473638578066   -4.13598795376143
O           1.81427902297785    2.47100511942163    1.69589478052325
H           1.35248061441129    2.42688441605000    0.82257417188441
H           2.70832225487542    2.75407027555554    1.50165775645749
O           1.12050302832436    0.35175253311437    3.14253798210900
H           1.36022036907909    1.20614833602724    2.71289894285134
H           1.94723827219998   -0.09342729019609    3.33397323839429
O           0.63497298310893    2.21005022090772   -0.67111858449356
H          -0.32443182103674    2.19183185795761   -0.55844553214638
H           0.87345453468619    1.32234534109966   -0.99685062475937
O          -1.33774341468354   -2.91149117498026    0.45214368834982
H          -1.00862036005797   -2.76226817817262   -0.46800481280652
H          -1.05632450302342   -3.79701027643547    0.68713464373984
O          -1.99440801131627    1.22513869868356   -0.27590041968480
H          -1.73457664543286    0.70086130674832   -1.07911316184106
H          -2.92865460243756    1.41322098508667   -0.37190633195815
N          -0.37689709886036   -0.49161896705644    1.07764769726530
H          -1.10782500887237    0.20849754962232    0.85970646769472
H           0.28556175904132   -0.47770761264525    0.26384986539840
H           0.12978542496825   -0.24334888762987    1.95985500173899
H          -0.80244100282758   -1.44223978221177    1.09603246262728
