    26
        -50.47229328  Gyration_radius:  2.41195295816 Dipole_moment: 3.399
 S           1.39264912182036   -0.96267164840105   -0.41087085534961
O           1.45747736802074   -0.13406005660259    0.78203811563814
O           1.15284549330396   -2.35787154377882   -0.08537604618973
O           0.47666809592714   -0.44811513500009   -1.40597572672100
O           2.83340175467508   -0.89749506052388   -1.08179316190608
H           3.34592424361444   -1.47625866242009   -0.52700543306156
O           1.69775991174822    1.76345260954144   -2.25565951123271
H           1.20977725763535    0.93350948215765   -2.09828806941891
H           2.62288168294118    1.51512653642493   -2.29537179786295
O          -2.17336265658626   -0.40520668596032   -1.00813218285392
H          -2.21698132816456    0.40545039950580   -0.46621466799039
H          -1.28957264860898   -0.37339448305584   -1.41841100828933
O          -0.70175749153243   -0.16221088376255    2.39631625776597
H           0.19707019784053   -0.10462689379179    2.01880053750915
H          -1.19053964340317    0.57089916933568    1.97728488800077
O          -1.79812734227338    1.70283534591796    0.69727024837726
H          -2.30961374891877    2.49618908759254    0.85968987048017
H          -0.87752553104613    2.01286447741589    0.45648573917449
O           0.67470735429259    2.36733965433451    0.20960228927177
H           1.06698800186045    1.52631255895723    0.51117644809885
H           0.95711278571388    2.44327552846471   -0.71913274390606
N          -1.32451666258888   -2.11781992115325    0.77983183966301
H          -1.16735989161878   -1.43868506465012    1.59060245557015
H          -1.85393642070942   -2.93817227489820    1.05346888419100
H          -1.81476062228522   -1.54748352417934    0.01758031001906
H          -0.36720928155858   -2.37318303151932    0.42208329103493
