    26
        -50.46912118  Gyration_radius:  2.50512172072 Dipole_moment: 1.701
 S          -1.11761544946876   -0.84157287604422   -1.46143259850373
O          -1.96096572095057   -1.32286675383657   -0.38454241385067
O          -1.30755076202399    0.57295433877164   -1.73735011906450
O           0.27951027307160   -1.18074519613238   -1.24174758047358
O          -1.55421960935499   -1.63129327131488   -2.76433143099096
H          -2.50527892912999   -1.62545564305945   -2.71933333190528
O           2.52853783834717    0.28567862054799   -0.75462400659149
H           1.87624350661307   -0.33539100705689   -1.11927409450139
H           2.02292934160404    1.10421873271317   -0.62926328055523
O          -0.55421855006251    1.30223593704269    1.80672939155101
H          -0.08067519988571    1.77751460886636    1.10273474622874
H          -1.49211778646623    1.26495180596631    1.50333786483018
O           3.00990502722249   -0.94007066950037    1.53461081704249
H           2.96041205417507   -0.39461274190846    0.70657627304759
H           3.61911770242704   -1.65405834824740    1.34241045774660
O           0.46455843803822    2.13309648361406   -0.60377465655296
H           0.44084566068222    2.97442963865609   -1.06228839039359
H          -0.17365872598264    1.54376788268658   -1.07656911704187
O          -2.86538985114061    0.98874813643543    0.52334958794701
H          -2.67299921424610    1.43391576777935   -0.30882875946983
H          -2.69892771592903    0.04732278296022    0.31885086947803
N           0.35300012524364   -1.12188927538503    1.42066687396280
H          -0.18315019638034   -1.83580033469038    1.90188808232386
H           1.37794998284258   -1.15488695188865    1.65272610938102
H           0.26000410526287   -1.24742193179720    0.38433007712626
H          -0.02624635450789   -0.14276972517660    1.66514864922970
