    26
        -50.46870586  Gyration_radius:  2.54253013408 Dipole_moment: 2.987
 S           0.05353246258396   -1.31125064783665    1.50625153249697
O          -1.22168835240800   -1.72901924213964    0.93975127331158
O           1.03987957659392   -1.06662664627352    0.45321668391063
O          -0.06088859327622   -0.20137680978849    2.41672520786907
O           0.59373499744037   -2.54123320419294    2.33942368803647
H           0.54782805503546   -3.26637662808445    1.72343429055464
O          -2.12693409423143    0.73401777812925    0.59353585637406
H          -1.91182047159052   -0.21052943082181    0.74617667430001
H          -2.22956047183077    1.11011937708032    1.47081663873703
O           0.99029409574560    2.25602720157786    2.28851425509219
H           1.72482748172653    2.33762647000668    2.89769236333064
H           0.58961394481195    1.37882624894471    2.46229003776016
O           1.00020445533212    1.46274211801707   -2.77616498210086
H           0.95442590374770    0.46947480715653   -2.74175101291853
H           1.84389059246140    1.67587407566677   -3.17586321821987
O          -1.70047247397426   -1.61099340489888   -1.71724444973177
H          -1.55635556482998   -1.79557073267065   -0.77091815248332
H          -2.31929681099668   -0.87830659652522   -1.74777418523268
O           0.89813129522200   -1.12850472895425   -2.31845343809323
H          -0.04545929353972   -1.38151670374409   -2.33168391774672
H           1.15534266422727   -1.22914091253330   -1.38922658278683
N           0.36259894868818    1.41345092333583   -0.18897580220060
H           0.73386591511536    2.06108444478932    0.52304623655473
H          -0.66975707314346    1.32908831726237   -0.05068619123523
H           0.60449662447762    1.66129740823184   -1.17741897273264
H           0.74956618660999    0.46081652825614    0.02528613715819
