    26
        -50.47004812  Gyration_radius:  2.43128154798 Dipole_moment: 4.482
 S           1.15235723207784   -0.52545975257407    0.54847721586855
O           1.13863951666773   -0.31672977714422   -0.90272438098612
O           0.18003036620442    0.39614209387903    1.17258426547305
O           0.87825763680486   -1.88890714093479    0.91745440365664
O           2.55329333517519   -0.13649051615426    1.07576305697779
H           2.80987436968483    0.65787656255820    0.53044491499390
O           2.76501605233039    1.82300545681999   -0.59241189015677
H           2.06467044619259    2.42992631765076   -0.27913686800504
H           2.32601709869538    1.20496163018990   -1.19422763740591
O          -1.39884175745468   -2.95971615197296    1.67203409357011
H          -0.48129145284154   -2.62297902344526    1.54248832052115
H          -1.41539412192246   -3.82060588235956    1.24914720352877
O           0.55949324600933    2.91228207694255    0.55076015749655
H           0.65945751522344    3.44026913322064    1.34401095655882
H           0.37240495144549    1.99062796119586    0.85262195618186
O          -1.03766310676356   -1.38589796213010   -2.04436711520631
H          -0.12689628385079   -1.22638302507401   -1.72156019212362
H          -1.22903099936964   -0.63883215794879   -2.62144628515717
O          -0.92235219967938    1.39930673722226   -1.45994203753528
H          -0.13414838247480    0.85820892487770   -1.28436134576310
H          -0.73752069801879    2.24829404283453   -1.04913068847670
N          -2.03079468097587   -0.75932025363018    0.34088863887301
H          -2.02885282745950   -1.64856532020662    0.90439469895317
H          -1.77965396661309   -1.00174795511365   -0.66156944401367
H          -2.90724211086699   -0.25133858214978    0.39433091041658
H          -1.22982918825351   -0.17792743653324    0.71547709170031
