    26
        -50.46935580  Gyration_radius:  2.47739601249 Dipole_moment: 3.240
 S           1.20830962381685    0.43582759008059    1.25647720816746
O           0.95837065592374   -0.99140191988038    1.02595336688183
O           0.71720266558569    1.21244488349439    0.12083744406839
O           0.70450857889589    0.89885090889218    2.51870132554698
O           2.77527791391399    0.61240474904396    1.26341817414784
H           3.04029671453094    0.32060910869905    0.38677645936888
O           2.48152555154569   -1.10875754759990   -1.02926846536576
H           2.97085018729796   -1.93457476688739   -1.01750007676564
H           1.84600049563055   -1.15869947175896   -0.26881456977619
O           0.74379893618181   -0.92983377719360   -3.13233783989986
H           1.10186928766886   -0.29824181462310   -3.75791421869984
H           1.41127080613978   -1.01607371965671   -2.42015687351001
O          -1.90521755064646    0.68660493724054    2.25008024684684
H          -2.30809150927070    0.87410754751740    3.10015076110379
H          -0.93407253081394    0.79346912596545    2.38357486864880
O          -2.01166604205013    2.16446836610115   -0.14368976921406
H          -2.22107771912845    1.73752017054710    0.70050233613082
H          -1.06703463299810    2.35017448277455   -0.08721100451099
O          -1.63174205900070   -1.63395730580483    0.78121864324892
H          -0.67860084899806   -1.65262686484084    0.98911587140898
H          -1.98742025848160   -0.94350122155733    1.36566785385910
N          -1.06408838903493   -0.09906934834715   -1.29246094205000
H          -1.41587037794595   -0.84075930812365   -0.62405548313981
H          -0.65070929853100   -0.49200073485272   -2.15674705894227
H          -1.79161165132996    0.60697722508032   -1.44256114801540
H          -0.29207854890603    0.40603868569906   -0.76975707963202
