    26
        -50.47723509  Gyration_radius:  2.39962536022 Dipole_moment: 3.771
 S           0.74501192726156    1.54641112209152   -0.23165713514961
O          -0.61428354929528    1.39896976493186    0.30641321641373
O           1.55420650629682    0.38251908108732    0.11270598106688
O           0.74374360119106    1.82434452952097   -1.64409649469120
O           1.37627249759599    2.78048187230861    0.50163750557208
H           1.22917622578588    2.57727361820384    1.43589226687024
O           1.18724239527744   -1.76845408056028   -1.42205986439545
H           0.68221565624711   -1.35600677676571   -2.14351548644452
H           1.54089461914012   -1.01190340428496   -0.90992536285503
O          -0.42363617638002   -0.11823203797802   -2.92199736289272
H           0.01062197705251    0.65267426003950   -2.47476233174630
H          -0.46304683675909    0.10879636616208   -3.85264236100263
O           0.66805271099508   -0.89267352964660    2.24228937416728
H           1.15035565227365   -0.45154207797152    1.50770274640194
H           0.36766457303066   -0.16308132883377    2.79668237768460
O          -2.17257335213733   -0.42068063219192   -0.81011393912372
H          -1.74852673934623    0.34364700420763   -0.36436375900624
H          -1.79209230248005   -0.40578825817124   -1.70411494125859
O           0.07682423094368    1.83696260828980    2.73407933457523
H          -0.48717978513575    2.46852879523078    3.18422821819048
H          -0.35504645121678    1.63832829012222    1.86723037778329
N          -0.67372973263943   -2.22531806970340    0.37368698311846
H          -0.26640524408817   -1.77514207631792    1.23533310048260
H           0.10995934184382   -2.23385136950196   -0.35153183827006
H          -1.02716815338239   -3.15468047182152    0.56820984003112
H          -1.41855359207590   -1.58158320845218   -0.03531045552027
