    26
        -50.47201751  Gyration_radius:  2.51686551254 Dipole_moment: 1.484
 S          -0.12863893366806    1.08833684891376   -1.67150761590724
O           1.05359606972300    1.91590737519117   -1.56690819779853
O           0.17955281387041   -0.32245691807440   -1.43530310244097
O          -1.24311293543696    1.53302181345298   -0.86184391981334
O          -0.61312333907358    1.18877997816331   -3.17452265504278
H           0.20360943199442    1.09068369226054   -3.65209442876029
O           2.08574594610621    1.51588101527465    0.79068781532497
H           2.73817739864157    2.19550468618614    0.96830693687623
H           1.74325184251888    1.69507942349568   -0.12044016689421
O           2.25093455017776   -1.18031320115445    0.12187264692387
H           2.40660079077052   -0.32562981976633    0.55121280878078
H           1.61912733085705   -0.97719002074149   -0.58911127905151
O           0.83909932611101   -2.88707451821406    1.59754698419963
H           1.48095248786191   -2.29545309783289    1.13210427020702
H           0.99990928793911   -3.76891782284945    1.26043014844113
O          -3.22481333535062   -0.23407308999259   -0.42127349102402
H          -4.07844931184873    0.18544695382526   -0.53287945942043
H          -2.55815875883776    0.44196164840003   -0.65730952937766
O          -0.48157520070575    1.34783905448104    1.72731763646036
H           0.48156044642737    1.44693618099516    1.62896933970080
H          -0.85655193006758    1.66886912343798    0.88801169058792
N          -0.99381200148444   -1.09251191812623    0.82241703458073
H          -0.82751012545370   -0.22056838496402    1.39507998002089
H          -2.00076756153853   -1.20996377073966    0.67741867204208
H          -0.57156059685660   -0.88824102442966   -0.11698595321911
H          -0.50404368267973   -1.91185419719305    1.23880380460336
