    26
        -50.47163234  Gyration_radius:  2.41164134525 Dipole_moment: 2.529
 S          -0.41883843271946   -0.74996353803752   -1.75652490613507
O          -0.83195103848190    0.60468764515630   -2.08454790816249
O           0.96319608519491   -1.02920529797223   -2.07727277798528
O          -0.76870313330100   -1.10533249961098   -0.39037411110044
O          -1.29342799324570   -1.71829298712303   -2.66416118637454
H          -0.91038220664417   -1.60728836426221   -3.52833720457942
O           1.67386841749452   -1.52983028758975    0.60502351599459
H           0.80410935737973   -1.42609632315978    0.16887115479839
H           2.27043538112921   -1.75383791598131   -0.11323237961624
O           1.86768693930834    1.13477807526144    1.06657966771339
H           1.97952000825609    0.16285488468976    1.02518132411012
H           1.89066354271224    1.42413643911537    0.12490364029968
O           1.67165060526850    1.48724171583759   -1.56254834626804
H           1.70187330599019    0.55200718593273   -1.83248109395084
H           0.77714403131370    1.74968197920745   -1.81283017675781
O          -0.76183642151506   -1.48749776100022    2.28998548256129
H          -0.99202508383410   -1.54380505071082    1.34691668739135
H           0.13654595715166   -1.83113935045238    2.33834026892478
O          -2.30700605315077    1.29842727436420   -0.05528261801861
H          -1.76844461714453    1.12292324170604   -0.86493355008578
H          -2.85937734726192    0.51936625104614    0.04095994290919
N          -0.57327410011425    1.16567932546955    1.96633004031140
H          -1.24924421178042    1.31452083296550    1.16707209398795
H           0.43865924575985    1.26046626808414    1.60295131018854
H          -0.75435225031858    1.81743199321592    2.72130870065486
H          -0.68648998743658    0.16808626386773    2.27810242918154
