    26
        -50.46601494  Gyration_radius:  2.55498240935 Dipole_moment: 2.015
 S           0.40480398816058    0.67209330366555    2.03019629051667
O           1.29688490333854    0.67287484068791    0.86216757632767
O          -0.48683488125402    1.81306525902561    2.01172515939326
O          -0.24387222021528   -0.60298984866620    2.19608677102215
O           1.34839032989217    0.87205584352244    3.28903307716825
H           1.57248778540534    1.79448024704203    3.22301896861006
O           0.57943343401959   -3.04052034064445    1.64503992072333
H           0.32892843765353   -2.16435725691079    2.01800186412212
H          -0.15037584015147   -3.62672431617786    1.85244330004301
O          -1.92407341104053    1.63312214118367   -0.14008802448523
H          -2.79687760731249    1.96813741137802    0.07209410802545
H          -1.40204725931722    1.69269833152851    0.70039948030531
O           0.56278396615706    2.00029100912419   -1.36278814463639
H          -0.36420302502955    2.14127485548221   -1.12476835459591
H           0.96931711868810    1.64324837299395   -0.55123060087283
O           0.48719617076392   -0.05611834513912   -3.03734226024356
H           0.65881180919680    0.25252657727789   -3.92699781076970
H           0.59299829585132    0.73612331871829   -2.45230102873667
O          -1.67752201208899   -0.73770603004334   -1.47256304958739
H          -1.86574584075990    0.08480311120996   -0.98054907690368
H          -1.21075662597570   -0.46644119224549   -2.28033968245361
N           0.67900798671620   -1.47752387281473   -0.52555431568463
H          -0.32668365285528   -1.29495054155948   -0.81920859382568
H           1.23710898737133   -1.59784500311928   -1.36712845091600
H           1.00475666184505   -0.62719659469520    0.00784407663143
H           0.72608248096094   -2.28442129080569    0.13280877082773
