    26
        -50.46601063  Gyration_radius:  2.52576713724 Dipole_moment: 1.445
 S          -1.02190384723613   -0.96040156829831    1.56432203064500
O          -0.82147749830110    0.46711225041558    1.38548635006369
O          -1.64638493853248   -1.59417892714835    0.42238788216717
O           0.20465755595478   -1.63707412884413    1.96817575028580
O          -2.04664625299126   -1.10482531256984    2.76578119493846
H          -2.35079119813986   -1.99845848346370    2.64647403001360
O           0.95304922808884    1.95553413458288   -0.01614994778083
H           0.52205767313718    1.90223857930977   -0.88093222925432
H           0.35934790648462    1.48049732275491    0.59456705552339
O           3.20533658930277    0.63247750894049    0.14655261383172
H           2.41836173757197    1.22897035662751    0.02506737370853
H           3.54064248623669    0.82418938179923    1.02380623489375
O          -0.77253325170647    1.43102974234258   -2.16579757728909
H          -1.51123695685561    1.49110259816287   -1.50882279602950
H          -1.14115901493717    1.67112825309457   -3.01674581622588
O          -0.20370304058127   -1.21658629414829   -1.75783171960302
H          -0.34844754801767   -0.27860664138060   -1.98611791124217
H          -0.86637248093319   -1.41994670941846   -1.06163271681159
O          -2.56837298645697    1.58211693731070   -0.22464998459582
H          -2.01532834266934    1.07386790615575    0.41178947774650
H          -2.69006377280747    2.44651118331726    0.17354892157411
N           1.78359277967330   -1.60808931542404   -0.10650015891207
H           1.07311488639893   -1.44912478807818   -0.89242997591440
H           2.30191319107052   -2.46581040413820   -0.26114032321638
H           2.43275192183286   -0.78067366298784   -0.03433511843149
H           1.20959519441757   -1.67299992891260    0.78512736990931
