    26
        -50.47070375  Gyration_radius:  2.37726893184 Dipole_moment: 3.847
 S          -0.11247737682300   -0.34905344662326   -1.50759962823606
O          -1.56219017136925   -0.36228311969780   -1.58875482975629
O           0.39240493482909    0.98765282725647   -1.20579436598131
O           0.42279083051948   -1.35714592191773   -0.62334427725454
O           0.41664087967631   -0.71292592026964   -2.95658727807985
H          -0.16225284453653   -0.25635886471538   -3.55938971068246
O           2.91467104277572   -0.15236997903491   -1.30167671267629
H           2.04989829897305    0.23996377702969   -1.47572082519571
H           2.74387856432024   -1.08946191868978   -1.18414940839029
O           1.08302554733510   -0.47212862821082    1.83063399033343
H           0.97109926483389   -0.92452560341563    0.97192432258255
H           1.60649145314968    0.33803535157358    1.61637489302631
O           2.28522683045882    1.63758725024287    0.76058876402133
H           1.58131559651433    1.75395111726821    0.10642458211521
H           2.98785667611164    1.19030473661634    0.26746730519112
O          -2.10396138945901   -1.92832554130132    0.46775833573617
H          -1.30463643917383   -2.46352701814478    0.43141802088619
H          -2.06615405724733   -1.39937861391591   -0.35832071572179
O          -1.76912653764034    1.83148792655150    0.06741902560415
H          -2.38297673620112    1.36095097150833   -0.50755475821856
H          -0.90912371927855    1.72129434756969   -0.38690906495198
N          -1.43439927863820    0.09292027215780    2.05968494785099
H          -1.83745419173593   -0.75899238740686    1.58281763999768
H          -0.36735657104439   -0.08185123406013    2.10750891820239
H          -1.60395392537637    0.90590612253732    1.41001302099603
H          -1.83923666098802    0.24827345707390    2.97576779858933
