    26
        -50.46475430  Gyration_radius:  2.61692608615 Dipole_moment: 1.414
 S          -1.42652139587256   -1.33902972245503   -1.05685737841378
O          -0.53650811019938   -2.16684400462571   -1.84463150633132
O          -1.06509524973110   -1.34692078366662    0.35479655916641
O          -1.59084259942577    0.00742415887223   -1.57365790393260
O          -2.86556057683989   -2.00292586430958   -1.15069417992298
H          -2.70443045971077   -2.89364884397396   -0.85641717833988
O           1.82770046784635   -1.31056503080152   -1.24117130154011
H           2.43096411478754   -1.81931793724707   -1.78643589808261
H           0.92638775959204   -1.68377276930294   -1.42224636447613
O           0.80236504978618    1.22965243599155   -1.36503553284810
H          -0.07365356880142    0.94623107377400   -1.68515122776413
H           1.34704257511008    0.42771236279083   -1.43244389637308
O          -2.75923052585186    1.77282963042649    0.05462243193133
H          -2.44251319420295    1.09284209913782   -0.57697975666240
H          -3.29635176327949    2.37964145792990   -0.45576911830708
O           2.86379986921277   -0.02614403174649    0.96321072597820
H           2.43706303693789   -0.62495714130568    0.32578772348556
H           3.14502747077820    0.73780879462930    0.45511409828731
O           1.41948275400507    0.81625445054174    3.07712587061626
H           1.27210295976290    0.08622478297161    3.68022742993147
H           2.05796634976053    0.49184538405672    2.40622251454368
N          -0.34868219565649    1.06893172219810    1.05275502096118
H           0.19961034545572    1.13831435979013    1.93388340945040
H          -0.64319324618975    0.06569013710932    0.88849586610625
H          -1.20906848528163    1.63099524940923    1.03805009175305
H           0.23213861800483    1.32172803980620    0.21719949077927
