    26
        -50.46372110  Gyration_radius:  2.71476942007 Dipole_moment: 3.434
 S           2.41686005292559    0.18003187569344    0.25743385155782
O           2.19226507854759   -0.86022209362147    1.24942599605528
O           1.45450498825442    0.05172036904602   -0.84535445396668
O           2.44702547165139    1.51208638417330    0.80067302147126
O           3.84118551470555   -0.10935060273731   -0.36650222649272
H           3.79862158525222   -1.04546888036279   -0.53466867439189
O           0.41351652583933    3.12594871563747    1.25398244724399
H           1.24431139550145    2.64284651895119    1.04099242500386
H           0.53820519906699    3.48337527897080    2.13424818417727
O          -2.90007590988598    0.76131889595138   -1.38179133920428
H          -2.87056226071645    1.30559412946686   -2.17020004799158
H          -2.73942615146155   -0.16482702579249   -1.68755476232637
O          -0.28174742378337   -1.18768198009759    1.89783737362675
H           0.68968783257397   -1.08308692842788    1.70289317905394
H          -0.33734275556984   -1.48088708701961    2.80803033452616
O          -2.24137099992426   -1.68007449171095   -2.16017957336965
H          -2.79970128652158   -2.44562498172968   -2.01977444224696
H          -1.38110173470436   -1.88429591729374   -1.71782909015765
O          -0.03074283972715   -2.18163974782116   -0.76870340291652
H           0.59159161268575   -1.44367579234549   -0.91789766969088
H          -0.24443219634197   -2.13916427564694    0.17254946400999
N          -0.78128195374197    0.93810980756154    0.25328632728403
H          -1.64468335381947    0.95648292345786   -0.34456499700073
H           0.05570095822920    0.66580299988285   -0.32221742691803
H          -0.56676369926140    1.86385744513309    0.67570208643245
H          -0.86424367979671    0.21882446068031    0.99018343622605
