    26
        -50.47071960  Gyration_radius:  2.44007436749 Dipole_moment: 2.611
 S           1.32232971215246    0.60769646448403    1.05045350162962
O           0.46439735010844   -0.01436392087676    2.03036408975666
O           1.66187773480397   -0.26474036400435   -0.06477669773691
O           0.79917938364596    1.88662794586269    0.59016475537783
O           2.69680447791792    0.90682934997637    1.77256019474028
H           2.40671147594525    1.34316197538983    2.56621293347487
O          -0.94884718578440   -2.13016276419284    1.08603791636202
H          -0.25171569009047   -2.63773581702269    0.63632963045471
H          -0.48015265623900   -1.41057082658620    1.54675641508071
O          -1.79397276811328    1.38458950197165    0.97119751802821
H          -1.82343640773279    0.91546656085869    1.80907272642509
H          -0.85600083036425    1.63319250174884    0.86368287438176
O          -2.23202934330090   -0.68979888795312   -0.69818088721910
H          -1.88858414828235   -1.36856009376873   -0.06087848828335
H          -2.30385481032504    0.12248326555897   -0.15524300666892
O           1.38677998401148   -2.93341004119242   -0.12864556535282
H           2.05808309461152   -3.36330530539109    0.40306922034708
H           1.59531811130866   -1.97973331442636   -0.11848703922056
O          -0.26366944983710    2.62882335872581   -1.74710087332720
H          -1.13329896864988    2.91949744734746   -1.46068358732024
H           0.25561577188101    2.52216335108550   -0.92440695550009
N          -0.12589821495447   -0.02578034432457   -2.02484977671749
H           0.64756921256476   -0.18052044043256   -1.33711028957525
H          -0.20685832282583    1.01212743769190   -2.15276708998434
H           0.06417247174662   -0.50633387472472   -2.89702064263965
H          -1.05051998419237   -0.37764316580314   -1.55575083650909
