    26
        -50.47096521  Gyration_radius:  2.40553668663 Dipole_moment: 5.278
 S           1.24468942046831   -0.24711424293632   -0.59344584906239
O          -0.11362014510208   -0.36694064128395   -1.13018672694040
O           1.31240273349914    0.83981817205289    0.38755256673936
O           1.69412020562137   -1.50251251300948   -0.01877847394084
O           2.18208517707001    0.10591999964486   -1.77076163766691
H           1.73716824027848    0.88402937926987   -2.20286594433585
O          -0.24792237020973    2.79936171514187   -0.41076082926198
H           0.38987527639704    2.18245554406379    0.00888423572956
H          -1.11130312761420    2.41301852703531   -0.22534843140879
O           1.04688966361538   -0.61917009084953    2.51400515390550
H           1.19138403280010    0.09391593801774    1.84578127529783
H           1.59306820553407   -1.33664946418414    2.17101285818168
O           0.98372394598193    2.22848582985120   -2.68536891865699
H           1.63201128200111    2.92785219110967   -2.79421973366860
H           0.42213193437063    2.49801793614359   -1.91553057855062
O          -0.51089765382326   -2.87177972955274   -0.14245970460386
H          -0.82919475034179   -2.43320637420772   -0.93973600247356
H           0.41929001236474   -2.53874603601163   -0.07982584997766
O          -2.11888782010793    0.63652355293218    0.08136632313057
H          -2.85880070549856    0.55276857110551   -0.52265923958544
H          -1.31619819310789    0.31600608516372   -0.42950554189932
N          -1.37745741525011   -1.31667054682970    1.79294507824518
H          -0.43878711818896   -1.00569752382277    2.20916917116831
H          -1.80088934503584   -0.50431190063356    1.28937975559087
H          -1.12764062350127   -2.05163748955286    1.05470028822093
H          -1.99724085221889   -1.68373687866405    2.50665676581854
