    26
        -50.46414322  Gyration_radius:  2.51079765446 Dipole_moment: 2.893
 S           1.57158191298581    0.53736811816014   -0.91215887442469
O           1.92131775685707   -0.02397762154007    0.37588283865924
O           1.06642384063955   -0.46821294507643   -1.82788859679071
O           0.66888485067574    1.67656574048981   -0.77766675146188
O           2.89663230928745    1.12459036759488   -1.55124379588606
H           3.47318798636540    0.36773351071158   -1.58654203179419
O           1.07013697071381   -1.89458734405721    2.10523234037168
H           0.42398550951425   -2.33295382442638    1.54108551600736
H           1.53785424533493   -1.27563017020694    1.51211434350102
O          -0.01220110916009    0.09008617802722    3.45219824420019
H           0.38196591443148   -0.75661550468690    3.11334519572307
H           0.73277987272807    0.62709095279930    3.72745303121213
O          -1.89144191853423    1.76666148501615   -1.52956944766838
H          -2.08573632217333    2.44411314630441   -2.17861038773534
H          -0.92668410044798    1.81210071122398   -1.36701724946313
O          -0.61918914091793   -1.74643346857216   -0.21078765495358
H           0.18742913543908   -1.45890271208889   -0.68429294840195
H          -1.28886826358020   -1.72892999643145   -0.92734273993953
O          -1.69631770801687   -0.83667923783537   -2.46879515490597
H          -0.74974096277518   -0.76423916962561   -2.65368567114504
H          -1.96921898296379    0.05666316852134   -2.19995106136797
N          -0.95729948229427    0.57319711263485    1.02438624489560
H          -0.25703195756157    1.12719583360955    0.48088444392509
H          -1.87927333648630    0.98225739667749    0.89432693492246
H          -0.92687952781710   -0.40661340657178    0.60705112906709
H          -0.67229750224526    0.50815166935338    2.04159211343854
