    26
        -50.45757815  Gyration_radius:  2.55684950502 Dipole_moment: 3.351
 S           0.26710426851626   -0.24425569616832    0.46718323494932
O           0.85469100100034   -0.36094033611478   -0.92397883879896
O          -1.20412075999592    0.13497520173356    0.27807441072271
O           0.35741700994092   -1.53632651197912    1.10309911300517
O           0.89613236123340    0.83302781496445    1.18734598854033
O          -0.06880170360346   -2.97678967416086   -1.14714350822648
H           0.24422406711231   -2.67426403655485   -0.27746500505417
H           0.39228536639052   -2.42583349371986   -1.78526417674333
O          -1.91964542221630   -2.62256854704424    2.09946101288281
H          -2.14834052080064   -2.17906537194722    2.91731697108252
H          -1.01562809024784   -2.33883205169106    1.87179380597825
O           3.08582747757350    2.00955019461467    0.16766465755543
H           3.83057013472477    1.41929328859365    0.29226682366830
H           2.34968585899849    1.64231672267924    0.69535130443071
O          -2.40958770290877   -1.92095745507020   -0.45161370826533
H          -1.68596297721007   -2.44123547760835   -0.87382641987331
H          -2.52624390004946   -2.32703872133421    0.43081095665747
H          -1.75290210846831   -0.69608257527094   -0.07052975007974
O           1.32290567212487    1.86874822470201   -1.80962922544571
H           1.05957347094461    0.64942376845698   -1.39154661272424
H           0.58593807126150    2.39317892630519   -1.35747358132403
H           2.12904904596542    2.07018795428287   -1.28028999300869
N          -0.50181101055982    2.90789612000733   -0.25431013576429
H          -0.53441050088213    3.87369100310704    0.04678684409436
H          -0.16164649237304    2.33924729223212    0.51811383760326
H          -1.44630261646752    2.60265344698052   -0.45219802585043
