    26
        -50.46663451  Gyration_radius:  2.52297966834 Dipole_moment: 3.129
 S           0.01653912722423   -0.94278419913783   -1.74554297254831
O          -1.16913883289636   -1.43641497041954   -1.05985109898202
O          -0.21439002792096    0.33124743132718   -2.39840905792589
O           1.18316737749411   -0.92990733276884   -0.88427457748591
O           0.33092325363388   -1.99337837072765   -2.88977264530942
H          -0.48632931378544   -2.00220909021867   -3.37672868591513
O          -0.70372398417337    2.00351516920191    0.96280366214058
H           0.18571062168171    1.98768015329814    0.54899514098150
H          -1.32254367304521    2.11485201860851    0.21293046588878
O           2.56032308951043   -0.55482493935417    1.41691384213475
H           2.20440385768104   -0.84785138248392    0.56074551841476
H           2.61238760524078    0.40254548833874    1.35038645851291
O           1.51772200041867    1.67322857641192   -0.52453473826831
H           1.31386237057418    2.09296189805116   -1.36321455416124
H           1.44296898029023    0.71437360541451   -0.70980334258542
O           0.64180027638438   -1.68459692271562    2.84233074955388
H           0.79574802450336   -2.62028552183650    2.70192407388421
H           1.42128955602404   -1.22471738864097    2.44354617899792
O          -2.11724056978375    1.79217365128501   -1.30736739511548
H          -1.45801485983629    1.19845102134820   -1.73285552371862
H          -2.34682323777809    2.44859339693763   -1.96668140275727
N          -1.29162611780054   -0.51360708422438    1.39587994292853
H          -2.22225109499610   -0.61496543288530    1.78689669353116
H          -0.58242274698830   -0.99907282750260    2.00069510472733
H          -1.26845299790181   -0.92295720361807    0.42042358137529
H          -1.04388867378399    0.52795025626999    1.31456461168545
