    26
        -50.45757814  Gyration_radius:  2.55684891323 Dipole_moment: 3.351
 S          -0.22867710901931    0.54451521016400    0.02152150033814
O          -0.70245054846979   -0.73585923828464    0.71453612069561
O          -1.02086866216296    0.70219588768314   -1.17112908712911
O          -0.29418700940084    1.64988010578704    0.94665194559411
O           1.22472291043474    0.31606885982129   -0.33855136871344
O           2.02764708797111    1.08124879372392    2.21392498870650
H           1.27103486745289    1.54329537354279    1.81405541024389
H           2.54621297669962    0.75992165439823    1.47150136957344
O           0.20101171235999    0.98080886228204   -3.54769094978211
H          -0.38068269785185    0.96184383825322   -2.76251986349155
H           0.55663757663893    1.86919852231621   -3.60120426319066
O          -1.55754942019588    1.25095020277774    3.31359560296310
H          -1.14995473866924    1.57550916717037    2.49011833240563
H          -2.50459270661562    1.24957629594217    3.16866932960890
O           1.36738493761162   -1.07507683952829   -2.34341578636508
H           1.34452376549643   -0.35165698076756   -1.24476578362795
H           0.53581145052553   -1.63782797205130   -2.22349826351439
H           1.11174675810908   -0.39680630694568   -3.01068349152489
O           0.24659036922089   -0.72353420879456    3.01922969336979
H           1.04607993741615   -0.15727895013413    2.90631774978849
H          -0.41776099209297   -0.13685854427331    3.43352792706573
H          -0.29320478881810   -0.79785706212293    1.68511740567263
N          -0.97915157275062   -2.10726638810657   -1.83663813073027
H          -1.33368575961344   -1.18044165861186   -1.61078059408906
H          -1.02268495835845   -2.65529510599378   -0.98683355668879
H          -1.59395338592939   -2.52925353824920   -2.52105621716255
