    26
        -50.46894910  Gyration_radius:  2.43844442998 Dipole_moment: 2.454
 S           1.20107680850639   -0.32621584356467    0.36319333523634
O           0.14953850419453   -1.04343773504057   -0.38119361499583
O           1.17694958805877    1.09460509217135    0.00812540113297
O           1.06150406760118   -0.52321843266144    1.78652379588958
O           2.55823122943459   -0.91122465920463   -0.09174619092218
H           2.46585065473604   -0.96218109227855   -1.08297481828441
O           1.83473080140464   -0.97344360368861   -2.57827185586958
H           1.04380409938054   -1.46006969042513   -2.32091836946771
H           1.52636628142838   -0.06111999773833   -2.76545712089186
O          -1.01554524865423   -1.62592895212791    3.05063659114697
H          -0.78620575680208   -2.50214901911536    3.36207205389779
H          -0.19026665126646   -1.24875447814073    2.67515334390073
O           0.84116785445458    1.53978509056231   -2.54054377520241
H           1.37661540975242    2.29390036212200   -2.79178640143453
H           0.93497401895453    1.45191807390057   -1.56083361070317
O          -0.56587765994816    1.86120452465534    1.81687182058163
H          -0.14309826630642    1.53754475160428    2.61758537697410
H           0.11818143505707    1.75725608779422    1.11811738236975
O          -1.74410999794181    0.39181419810878   -1.81794254412648
H          -1.27533913218311    1.05944461425903   -2.32724271951922
H          -1.04746239485807   -0.19696518365122   -1.49481905201877
N          -1.94692238645076   -0.23422980744423    0.99222196073759
H          -1.56705316676738    0.70066014369381    1.32774379513940
H          -1.17095168817763   -0.64837855513678    0.40288120090433
H          -2.05713634002299   -0.85182128469705    1.81358367562183
H          -2.77902206360915   -0.11899460410670    0.41902034004574
