    26
        -50.46761514  Gyration_radius:  2.48851742098 Dipole_moment: 2.450
 S          -0.10885514493635   -1.47477001478718   -1.21101555349200
O          -1.11817094936851   -0.41810187541439   -1.13774639552811
O           1.22756104382265   -0.90387395519690   -1.31174160495139
O          -0.24519412544738   -2.43156860888419   -0.14451706195075
O          -0.35778901856250   -2.24223819820912   -2.57072443431216
H          -0.00868726840616   -1.64882118372344   -3.22923014591591
O           1.79937297628761   -1.09171299317964    1.26549242450770
H           1.49115176845233   -1.95611501403775    1.54983611700732
H           1.74705009428641   -1.11708422288461    0.28752010007557
O           2.26064496837572    1.47370737863079   -0.38909731527987
H           1.89615232166754    0.72649524799925   -0.89220879799907
H           2.81953382388029    1.07984460181529    0.28471777780730
O           0.13786139325138    2.88244438413777    0.53325580056793
H           1.01743506654615    2.61540822086876    0.19933755033335
H          -0.42661320322781    2.88256754681213   -0.26365509550455
O          -1.66419808072270   -1.81179295263914    2.06889656426696
H          -2.26625214873979   -2.52405265405943    2.28631544038799
H          -1.19042981537119   -2.10073677944221    1.26465591884249
O          -1.36995941302490    2.21837437512792   -1.63728773376985
H          -1.25380382230547    1.25284502554406   -1.55811915228239
H          -2.31065358994811    2.36609260927466   -1.74471707385151
N          -0.42355649601470    0.45744209002847    1.29687500980893
H          -0.80419429272733    0.11209776929072    0.38646553779414
H           0.48192842193163   -0.04491584307822    1.45200503002550
H          -0.25368845573116    1.51138920526443    1.18245256120584
H          -1.07664604397062    0.18707587074406    2.03223452222227
