    26
        -50.46944393  Gyration_radius:  2.48771506013 Dipole_moment: 3.771
 S          -1.45832348192458   -0.05803513076720   -1.34521832407769
O          -2.09062847513662   -0.26012216221944   -0.06027145743046
O          -1.62543292884402    1.24854727327705   -1.92749665834225
O          -0.04936044931912   -0.47273424666285   -1.30338499358678
O          -2.16762573325844   -1.06856792132224   -2.35075814993899
H          -2.29930287837019   -0.52312107554204   -3.11898826777620
O          -0.92148812208921    0.95694072289170    2.08115725340060
H          -0.60334397623571    1.67280891775459    1.49041225186311
H          -1.67789850816751    0.58930387384594    1.59842977816826
O           3.13660270259972    0.01538320569866    1.05080838720046
H           2.88100606914614    0.41068437059194    0.19307566159121
H           3.34537834631203    0.74892015883680    1.63175068440122
O           2.06954719467811    1.07382344876418   -1.22594996501488
H           1.28411608359776    0.48654152638409   -1.33534663468677
H           2.48639711778350    1.12883773728172   -2.08695410711353
O          -1.42350916890993   -2.70166183272682    0.83277212036206
H          -2.01660988658896   -3.36227422463440    0.47472794306416
H          -1.75500206173989   -1.84003663356066    0.51088055697197
O          -0.13113729590171    2.41536578579000   -0.01792552981131
H           0.74878290660355    2.23067375509860   -0.37003812732551
H          -0.75533437528076    2.14928338251461   -0.71599672007487
N           0.62745383314002   -0.98699854063443    1.22075849198095
H           0.38650633223326   -0.87962844376696    0.20508601687567
H           0.29847713249130   -1.91095554712921    1.50399846325723
H           1.64655562984298   -0.83002141963876    1.33895106230545
H           0.06417398332930   -0.23295697013186    1.72552025373537
