    26
        -50.46450378  Gyration_radius:  2.67333729258 Dipole_moment: 1.892
 S          -0.23813138037176   -0.78045229366548   -2.28674011440653
O          -0.74320646827505   -1.20090556038041   -0.97100568806228
O          -0.84174450256363    0.46817352929979   -2.71156303699128
O           1.20172101482459   -0.79774647543176   -2.31874581354811
O          -0.74625417626978   -1.87415138050697   -3.31532695925280
H          -1.63553268742264   -1.58298618488807   -3.49012550207134
O           2.21997450361790    1.00967733534518   -0.65442192822883
H           2.07684509978528    0.46615464724358   -1.45421279303902
H           1.48559664531398    1.65049940344698   -0.66165436609174
O           0.77211336822550   -0.87365189986111    3.21333118113374
H           1.30485275339423   -0.23669054392932    3.69237210869913
H          -0.14619957792239   -0.49698457184795    3.19952893535712
O          -0.14490621945954    2.31889766185956   -1.03303554053822
H          -0.27132420883300    3.18051810840750   -1.43395530815087
H          -0.42315632323786    1.65528043738932   -1.71639381805624
O          -1.59977652813034    0.23943366933094    3.04265930210232
H          -1.71900948022337    0.49014343879012    2.09153531109811
H          -2.37200634519552   -0.27918598489743    3.27194760864890
O          -1.90226268126270    0.75385479007325    0.47131451614087
H          -1.38118937551494    1.49458679389824    0.12861939344619
H          -1.61832674008516   -0.01485216211858   -0.05765988786670
N           1.35073658027204   -1.13005636860678    0.61728487127450
H           1.79313414604925   -0.22985488657848    0.25996607908201
H           0.47231658057822   -1.25482665643365    0.04293417842136
H           1.97567096110186   -1.90671428482590    0.42699673229454
H           1.13006505161608   -1.06816057110132    1.64635052860752
