    26
        -50.47033173  Gyration_radius:  2.48328457987 Dipole_moment: 2.318
 S          -1.83407664083900    0.52873173984649   -0.80339413372706
O          -1.15482534673876   -0.09466344895678   -1.93284175181904
O          -2.60984080307012   -0.41624902451996   -0.03359093673168
O          -0.91932939634342    1.31643973497648    0.00950453759502
O          -2.85903072956212    1.57138882613296   -1.41288881453973
H          -3.55833934941341    1.01142491036949   -1.73389109382672
O          -0.97617858465322   -1.99098154746624    1.34776291244773
H          -0.64007650160832   -1.32014061431110    1.96512609465798
H          -1.73250557175497   -1.55109296390310    0.90549191673449
O           2.32452966353959    0.89508834283977    1.80211666944440
H           2.27650511804839    1.81419608202973    1.53049687706702
H           1.43874913548289    0.66349956213830    2.13282589733272
O           1.08965453662181    1.58590797610213   -1.73014340786214
H           0.40236320249908    1.63630128994921   -1.03893333014216
H           0.63532847170780    1.18792311999819   -2.47814698946062
O          -0.32349934368467    0.45605405258000    2.40038137451900
H          -0.86953859606552    0.90831444596787    3.04513739186854
H          -0.58842231758597    0.80794915779386    1.51573944680290
O           2.58949943394513   -0.32576389516258   -0.58603368789482
H           2.22632395487678    0.43403402731738   -1.09321098630516
H           2.65005946198002    0.00223793114267    0.33571720606644
N           0.49443051709224   -1.84745663172274   -0.83523738370861
H           1.41756076062236   -1.30343935407002   -0.69216170755151
H           0.01343068559735   -2.03123937725740    0.09383020349689
H          -0.15347650159109   -1.22362430721229   -1.37992313311537
H           0.66070474079820   -2.71484006464807   -1.33373316132087
