    26
        -50.47679053  Gyration_radius:  2.36807365212 Dipole_moment: 3.216
 S           0.20514308092634    1.49689527167601   -0.34059146266118
O           0.70644131060538    0.58258936426447   -1.36733970488978
O          -0.80171536369841    0.81040199674561    0.48500660886773
O           1.27819633887109    2.02730512228400    0.47426535799873
O          -0.49544939253376    2.67859868424057   -1.04896927707167
H          -1.35691814667068    2.28719392112736   -1.35065274888374
O           1.87257257880926   -1.52024119620038   -0.20667524694365
H           1.66204066240401   -0.76881257573098   -0.79675329477264
H           0.99454046923717   -1.92965894186940   -0.05032074976383
O          -0.37226593322338   -0.45235057786896    2.81668480844811
H          -0.67229582250192    0.16175124539145    2.11724317092909
H          -0.68750118888209   -1.31780715564451    2.53781030015322
O          -0.77606635220712   -1.84352002886837    0.11831415485084
H          -1.10583534149255   -1.98320517685506   -0.77669875149332
H          -0.83424724364940   -0.87459989175142    0.24764760836655
O          -2.60229487601971    1.23207881565940   -1.48886277290446
H          -2.29408986789492    0.46746860254372   -2.01332517277659
H          -2.46518895068088    0.97523147421001   -0.56680171232074
O          -1.15753224737704   -0.82319935274145   -2.53109286866497
H          -0.95665276021321   -0.93279111751062   -3.46153856642988
H          -0.40142609038973   -0.31586864867328   -2.14351421213282
N           2.08209335260487    0.00389197552822    1.89899120898457
H           2.92325092269095    0.06855631382222    2.46114116371487
H           2.15940303251902   -0.71986544758724    1.11170945390160
H           1.23006847237192   -0.22933271655476    2.47076884238142
H           1.86572937647044    0.91929006039704    1.40355388309716
