    26
        -50.47155365  Gyration_radius:  2.49974237052 Dipole_moment: 5.047
 S           1.36787004679689   -0.00224522469002   -1.09472373783929
O           1.60079281398771   -0.05688475118581    0.35823362480513
O          -0.05683280794709   -0.27175537497169   -1.35285366934749
O           1.79209628443893    1.23597698440698   -1.68656227164116
O           2.17975873418525   -1.15712238978890   -1.73966836913353
H           2.08989509921505   -1.90366165867158   -1.09649671371834
O          -1.52371045192612    1.82943124477272   -0.60495755585537
H          -0.91937910508508    2.57921639237351   -0.79269342707096
H          -1.12595035995496    1.06889127717879   -1.07611235048266
O          -1.01672861535940   -2.33918552450864   -0.18024098893355
H          -1.52804133676727   -2.81844588574233   -0.83418997854616
H          -0.66670614774345   -1.52723335536189   -0.64898475561252
O          -1.97276237570792   -1.22846898416502    2.08513449102037
H          -2.91211236614120   -1.11390250976015    1.93039169473963
H          -1.62809575339431   -1.74221435612608    1.32417840087445
O           0.57739274096157    3.43871052142207   -0.92132027637798
H           1.11531046925966    2.65364455544771   -1.17580387365836
H           0.73146586710196    4.08843913122652   -1.60915319402415
O           1.67842733150685   -2.71427901826086    0.28898211286537
H           1.77981430109149   -1.84746043686852    0.71625407228441
H           0.72027365591194   -2.86523165655306    0.23864749631543
N          -0.45814820031926    0.95092622346464    1.60590663622336
H          -0.99191115328691    1.41040772547826    0.79232505205257
H          -1.02623188337251    0.14861590414150    1.96137018321659
H           0.43451494313851    0.56669487913208    1.17382538198651
H          -0.24100170060823    1.61713630762428    2.33851200583916
