    26
        -50.47283318  Gyration_radius:  2.47269453698 Dipole_moment: 2.334
 S          -0.06565286408640    1.18167744108876    0.85272572892944
O          -1.51925755919694    1.08256521691722    0.72107751096269
O           0.48390434389692   -0.06583481568757    1.37930308224334
O           0.57090599534246    1.56434883892988   -0.38942791848334
O           0.24516715369503    2.30400070176601    1.89205085807827
H          -0.34132404588783    2.06395437174442    2.63593332187146
O          -0.39218616739865   -2.29698700333233    0.27910001186449
H          -0.25271513711224   -1.46373289795290    0.78312233130242
H           0.43001915618108   -2.78339412540969    0.39379407849110
O          -1.78243277275213    1.37077660995727    3.30344785819404
H          -2.51297663739280    1.95912563473711    3.50769218808402
H          -1.90783951420500    1.08506834479409    2.37497183306860
O           2.54608795031890   -1.41366503793989    0.43921488593018
H           1.82163651235672   -0.88851495563695    0.85138185139995
H           3.34082804368795   -1.19287445122171    0.92630704658459
O          -1.69820834014893    1.06610343650543   -1.88808742857806
H          -1.82339680639357    1.06530943509344   -0.91184376428006
H          -0.96183478346467    1.67598125024426   -2.00954632584923
O           1.94162333183404   -0.16267812826802   -1.87905473924455
H           1.56669701635447    0.61062322312413   -1.40629172212718
H           2.34336612969615   -0.70123476469515   -1.16801857890104
N          -0.41954492370799   -1.23597950578540   -2.16215103822404
H           0.59046918634802   -0.86963067204145   -2.19278436951557
H          -1.04120218378706   -0.37531076891518   -2.13147391113390
H          -0.64126190035258   -1.82764213758312   -2.95456412103865
H          -0.52087115384099   -1.75205523042740   -1.24687868962853
