    26
        -50.45914839  Gyration_radius:  2.53868032626 Dipole_moment: 2.204
 S          -0.73067583875345    0.00883633461340   -1.97319704920037
O          -1.41158919306381   -1.13016128060372   -1.38934610143156
O          -1.59094863509373    1.16019482205745   -2.15423963172982
O           0.50305466998524    0.31311897633364   -1.26442830160028
O          -0.26752211466831   -0.42630818608939   -3.43566071234387
H          -1.06700933846910   -0.37465229950262   -3.95100483204437
O           1.04051187116990    2.25449816609178    1.24549163707121
H           0.22237149727878    2.02050835938071    0.77032026842028
H           1.36574419110476    3.05591087075935    0.83288270185702
O          -0.63050441669213    0.25047902840639    2.54690665311218
H          -1.17216378539965    0.63716710521271    1.83681866819689
H           0.01530685257241    0.93247441048946    2.76110619161920
O           2.90375393613619    0.33623660046968    0.43289865739947
H           2.59756351894226    0.34337951940349   -0.48015594962599
H           2.38507395680898    1.03941422261367    0.85987713629213
O          -0.50605295505412   -3.33340260000388   -0.26680349439100
H          -0.86536066688014   -2.58597103974283   -0.79951225446807
H          -1.27091313215824   -3.78086891803982    0.09856506345524
O          -1.54478266832528    1.67984379391410    0.37618349950528
H          -1.55131120493624    1.45771772116488   -0.58730304000719
H          -2.28322541184302    2.27938132453337    0.50680231886135
N           0.78034436481309   -1.25787215104966    0.83243789211522
H           1.79059541890294   -1.15663627848049    0.99693517137759
H           0.23263825861302   -0.83497374330025    1.61898458292894
H           0.59212996867915   -0.66589682425342   -0.02504403880583
H           0.46297086634143   -2.22241793438224    0.61048498343779
