    26
        -50.46733264  Gyration_radius:  2.46796485002 Dipole_moment: 4.266
 S           0.43938110959394   -1.07326938105400   -1.71484125921046
O          -0.92561754672935   -1.42199798864482   -1.37059807608710
O           0.56964407821724    0.32466163969990   -2.09599882354043
O           1.39640343046055   -1.46780326985560   -0.69728935966311
O           0.80613149601463   -1.91890185261294   -3.00144262457304
H           0.13098271016960   -1.63743040428517   -3.60937023852499
O          -1.24945278413856    2.13675677941915   -1.39011579051382
H          -0.65351533197429    1.42440850724755   -1.69704414934412
H          -0.78271584526053    2.95769748324630   -1.55759786461083
O           0.93906910856338    1.23881774114329    2.06944805305077
H           1.47759733524893    1.41261818801611    1.26586341969227
H           0.01955782634753    1.53435296230327    1.84519276921583
O           2.27694553872324    1.21700238655551   -0.25952060188428
H           1.65517818222847    0.98952557937219   -0.97873893819253
H           2.86737157540451    0.46205672071364   -0.20689048338611
O          -2.05944162688568   -1.19188789953833    0.94521351865812
H          -2.92515850645544   -1.59972206265919    0.90015933736283
H          -1.67928140045061   -1.25366834263804    0.03030533442305
O          -1.53857513952309    1.56718795217491    1.23793912303098
H          -1.51501979868491    1.85476290409800    0.30264310633084
H          -1.88222046355862    0.66278373610172    1.21570479130633
N           0.52937613917023   -1.27230014923953    1.77621281215082
H          -0.49612534677444   -1.38037112551414    1.71706942839053
H           0.91754209421303   -1.44396549359452    0.80953873452856
H           0.74839907538842   -0.21270974865613    2.01072808307130
H           0.93354409068871   -1.90860485179804    2.45342969832019
