    26
        -50.47492908  Gyration_radius:  2.40423516229 Dipole_moment: 4.458
 S          -0.45455239734362   -1.22295058849059   -1.19351498748739
O           0.25990167424263   -0.02267564028206   -1.63310672824506
O          -0.07641332475725   -1.53857067787059    0.20075983568750
O          -1.87999157318056   -1.09765684505741   -1.32364358860929
O           0.04114867472143   -2.41232675884510   -2.06014341842534
H           1.01600797568274   -2.31304410591331   -2.02231812665892
O           2.48199092735418   -1.43612523363972   -1.72479722681396
H           2.79861047448772   -1.30975890050158   -0.82031149173636
H           1.90155897184383   -0.67159085266013   -1.88269006218703
O           2.21300693546892   -0.59987952703735    0.99711820791963
H           1.35778468546617   -0.98090400892231    0.67339583033945
H           2.49149555236234   -1.14981267244318    1.73134585373193
O          -0.35957382533477    2.29267598613208   -0.66082856947913
H          -0.11275350528949    1.41822759235521   -1.06012325735225
H          -0.10936763950009    2.95658012181050   -1.30510553447967
O          -2.78355659185015    1.08074330765396   -0.08754473789873
H          -2.12593832341993    1.73266041147921   -0.38226956403203
H          -2.64297181063803    0.29391245287544   -0.65703365420533
O           0.75974762521895    1.62256517207582    1.75713536087202
H           1.43529017949000    0.96964136803802    1.49161557454286
H           0.47798124964542    2.06035448665590    0.93349923995114
N          -1.35458157827642    0.05906983323218    1.84405674000411
H          -2.07365013444616    0.52132691619902    1.19946151900596
H          -0.93899500826384   -0.72532904931763    1.27478038478277
H          -0.55529295418494    0.74526111322997    2.00204950045662
H          -1.76688624950922   -0.27239390071201    2.70821290029339
