    26
        -50.47472243  Gyration_radius:  2.50579742235 Dipole_moment: 3.297
 S          -0.61427061581731   -0.68664209894707   -0.65534361124808
O          -1.31368024452297    0.42051523957449   -0.00461966814773
O           0.48777085287637   -0.18279761061508   -1.48261975362341
O          -0.13695274582458   -1.64249388584282    0.33216819091447
O          -1.61092037582283   -1.42236844604986   -1.57371734528860
H          -1.60961464601981   -0.87058950480532   -2.41295585202271
O           2.31329065168246   -1.86517485324022    1.41665485125081
H           2.00775681839880   -1.80859483812933    2.32851763152921
H           1.50451502848552   -2.05138360640796    0.90097853383393
O          -0.09068942681263   -1.00487336892452    2.90410304047925
H          -0.91746320203001   -1.21066014401506    3.34206739474527
H          -0.20642801233906   -1.27676991046600    1.96546153760508
O          -2.25149820925245    2.09955239402152   -1.81638847261878
H          -1.89968157425926    1.55048112905512   -1.08162405095435
H          -3.18608821174126    2.21621445298004   -1.63809403082515
O           0.27340395594085    1.46898849325796    1.84831387536778
H           0.19277539919305    0.73964255659586    2.49218518843470
H          -0.41687815421092    1.26425369271332    1.18177444791811
O          -1.27322485359316    0.24670140812531   -3.48229116254139
H          -1.69991194160709    1.04002236983562   -3.09308410959670
H          -0.35890606146961    0.27308079865012   -3.16465444362648
N           2.19776559538323    0.55951094416328    0.33551886564601
H           1.53308432467067    1.07296284184437    1.00196261520711
H           1.60419389930661    0.30417537821100   -0.50799887765592
H           3.00196892170620    1.11934503261994    0.07517801304183
H           2.46968283767649   -0.35309848421177    0.78850721217825
