    26
        -50.46845444  Gyration_radius:  2.47673324929 Dipole_moment: 1.839
 S          -0.05787923668243   -0.68285159817220   -1.59466145651311
O           0.49110535657027   -1.97602903622818   -1.24605827843350
O          -1.44414115733353   -0.50258625547289   -1.26164715697351
O           0.77731317159375    0.40226419865827   -1.05273230110316
O           0.05645949906744   -0.55185754703260   -3.17341044929480
H           0.83809972586796   -1.04576937161290   -3.40433115267062
O           2.51443175072875   -0.90539183807661    0.56717631610635
H           2.05483934418224   -0.37014086787727   -0.10244289516540
H           2.22173430386111   -1.80579506201285    0.40211533757490
O           1.89348474215883    0.41437950010627    2.86588971639499
H           2.22882594709408   -0.13865352054826    2.12916085533548
H           2.58534937113866    1.04634095948714    3.06375878191681
O          -0.82753893667199    2.50030913210408   -1.64373168556373
H          -0.15514081802728    1.81843125313064   -1.47118484062877
H          -1.22749973456418    2.26618988462318   -2.48311535262530
O          -0.96903200836572   -2.20842326753086    0.95528586357714
H          -1.86671783960899   -2.21893259742202    0.61411686863959
H          -0.39686867073364   -2.28994002057829    0.16503091271491
O          -2.46359647414648    1.52501728109529    0.31601529763380
H          -2.02578209191831    2.19220514944511   -0.24355337488208
H          -2.46543422445543    0.73626320471678   -0.24990092700384
N          -0.35625439876494    0.37502784191203    1.40312370925101
H          -1.22670127898362    0.95688636863635    1.30102838809581
H          -0.62450379206233   -0.63890614502706    1.43412030538047
H           0.17130608536595    0.50371027615393    0.51620016539444
H           0.27414138469445    0.59825207749393    2.19374737283496
