    26
        -50.46977837  Gyration_radius:  2.43898749872 Dipole_moment: 5.755
 S           0.17237675608134   -0.64729209120442   -1.74910616089698
O          -1.10256399099302   -0.57114583537620   -1.04143714752426
O           0.44015354441731    0.47765141083444   -2.60055087118060
O           1.25380054047191   -0.94755002522926   -0.81431937117035
O           0.04475624699697   -1.90562540795520   -2.70322462601820
H           0.55325934606702   -1.60363253376485   -3.44714890549695
O           2.23824433698330    1.25372188566405    0.55336465885756
H           2.11750777539098    0.44977150221724    0.02532098307960
H           1.88252358680035    1.97121267221942   -0.01429870916925
O           0.28170671514276    0.97684373204967    2.28521945478789
H           1.10723083090507    1.20249083169236    1.77721536605282
H          -0.43841891984398    1.35688324193697    1.75749533847061
O           0.72151215696505    2.72195965595755   -1.09584716148371
H           0.67569166779523    2.03441179114961   -1.78290337151822
H          -0.09631819029561    2.62988909480042   -0.58670220989754
O          -1.95746645537145   -2.40296312240361    0.64638926933736
H          -2.86547096257923   -2.19239678106316    0.86947898800990
H          -1.71257330498732   -1.81412179640806   -0.10246001331685
O          -1.50492185396729    1.66498625197098    0.28200479257935
H          -2.38748769330165    1.98209979135804    0.08558115779333
H          -1.37972401673149    0.83869432681239   -0.23807145871173
N           0.39343008043823   -1.51925154838020    1.60222300711698
H           0.29642937763647   -0.51665757968207    2.00936136908434
H          -0.53950476890240   -1.96140096043952    1.47395639281624
H           0.80074686776662   -1.38626432853561    0.63574288000314
H           1.00508032702793   -2.09231421123849    2.17271634671969
