    26
        -50.46891534  Gyration_radius:  2.43222973273 Dipole_moment: 1.431
 S          -0.81833309656705    0.57373491322085   -1.55152233756691
O          -0.24827285253807   -0.76488104365534   -1.63195332471593
O          -1.95554810582204    0.61548440016380   -0.65112950746354
O           0.18538374886499    1.57752635594178   -1.25906445935800
O          -1.36584865326862    0.91372150437099   -2.99480696348261
H          -1.99019998523571    0.21414675595982   -3.15615566179372
O           0.32910625926596   -0.00760164056991    2.28809707706084
H          -0.47686015393617   -0.53662029097166    2.15384936125307
H           0.07290980847327    0.91006281257167    2.04242438682414
O          -1.88033850871901   -1.21172630490845    1.23558339292834
H          -1.92191526397113   -0.55712021859198    0.49839268139068
H          -2.78031812972443   -1.32837785490096    1.54327132383245
O          -0.57627365668794    2.26151065242422    1.19294955600631
H          -1.52347887972809    2.12282879775885    1.10799217074306
H          -0.23871319648692    2.14810031713603    0.28381905053875
O          -0.02034931609609   -3.03073648640750    0.06038056213972
H          -0.16780653195787   -2.58806864710364   -0.78271053399427
H          -0.67472781373261   -2.63973863235479    0.65368569272395
O           2.81104126602366    1.45812470898153   -0.73612676814516
H           2.98342032025545    2.21046416204514   -0.16658502982605
H           1.90975532142708    1.59424300805581   -1.09130098251935
N           1.69606492275495   -0.79754844164923    0.19483633965451
H           2.09291349069089   -1.72900548932374    0.29114679267512
H           0.95887381457986   -0.82964423431738   -0.55320211726409
H           1.21229431867848   -0.50949307217344    1.10935847331289
H           2.38722087340501   -0.06938604177698   -0.08122917496715
