    26
        -50.46841976  Gyration_radius:  2.46110273275 Dipole_moment: 4.831
 S           1.62134313754042    0.78180534013517    0.94615210775529
O           2.41427400928121   -0.04306358104067    1.82057656461214
O           1.77061669581046    0.46532564783456   -0.46981998669634
O           0.21613317899314    0.86208234754892    1.31587760856685
O           2.20802780426957    2.25942780034458    1.10501811844853
H           2.90973711596418    2.14669861875554    1.73808773186558
O          -0.12359408291216    2.49749020274819   -0.72416943140810
H           0.77671738117411    2.39426379176214   -1.04631957745476
H          -0.10798632185165    2.04468049530004    0.14280421841592
O          -0.95453262464757   -2.56355564075904    0.11917638190686
H          -0.31162263631781   -2.55050849018685    0.86169788451348
H          -1.61863405672986   -1.88081516042013    0.37281411486248
O          -1.78309175402789    0.89139904782392   -1.97885543502501
H          -2.37599275223948    1.37706206595413   -2.55286242681100
H          -1.19486590201902    1.56493935860107   -1.54269589204324
O          -2.18171963485344   -0.26269947352951    0.61467909032504
H          -2.29899009603781    0.15708290991015   -0.24811626364489
H          -1.39744255688483    0.16153619311409    1.00275905825363
O           0.63063122334407   -1.98051968951896    2.19110431307308
H           0.02044431652463   -1.51731320673401    2.76984772925972
H           1.37990379104604   -1.36661621326809    2.06602673064849
N           0.08542156323812   -1.09616948382347   -1.72817187475250
H           0.49758619028901   -1.57196968369312   -2.52259340420005
H           0.81205018079982   -0.50582234264597   -1.23191717374174
H          -0.67523701823401   -0.46091282565407   -2.02353062556360
H          -0.31917714169822   -1.80382799847255   -0.99756957112036
