    26
        -50.46417065  Gyration_radius:  2.5116480983 Dipole_moment: 4.612
 S           1.49586937122058   -1.02242631154985   -0.61375045651948
O           1.24958094222956    0.05853308474500   -1.54681258805193
O           1.77211322941932   -0.48189781736554    0.72472982863996
O           0.45973104449169   -2.02454209682147   -0.58807921723787
O           2.82618806497317   -1.73587076706439   -1.09085081723990
H           3.33988187685588   -1.00968123495804   -1.42983601476480
O          -1.74375777666578   -0.52845753403199   -0.63672513912009
H          -0.96522480501795   -1.04285012648251   -0.92821238567801
H          -2.12563100920114   -1.11382790842537    0.05195547592811
O          -0.84124729653327    1.45028375910048   -2.51257866799311
H          -1.56044680024799    0.89168996328355   -2.19842350843290
H          -0.02949189339467    0.94089222666448   -2.32481960487332
O          -1.64391256762551   -2.32307620207932    1.32721883747269
H          -1.14820962027197   -1.83696774587616    2.00806581233387
H          -0.96686883862469   -2.66900775995201    0.73060068255802
O           0.18746459459651   -0.88910172096730    2.83367331650559
H           0.84734037699493   -0.84125208087533    2.11039985642580
H           0.60218000615490   -1.38299386938202    3.54218858181222
O          -0.25713405175382    3.32761549581882   -0.76564814901651
H           0.59161890884952    3.67573914698323   -1.04298924328763
H          -0.57044458140438    2.75643850960480   -1.51631400942405
N          -0.30465472565253    1.17983047421527    0.79254965047499
H          -0.24692067436798    2.12051712221978    0.31575341611776
H          -0.98590632466780    0.57188488296656    0.24388151491869
H           0.61685505553971    0.68362721631129    0.75001959995704
H          -0.59897251587722    1.24490130394509    1.76400323849794
