    26
        -50.46885305  Gyration_radius:  2.44108635232 Dipole_moment: 4.296
 S          -0.53108187289470    0.51274797283160   -1.78984445422699
O          -0.90184542993714    1.89783227288790   -1.61325328662860
O           0.86369670222149    0.22876903469535   -1.52858193205539
O          -1.40814067340938   -0.37368213625959   -1.01450025790226
O          -0.78561011050334    0.17440322502120   -3.31153678062102
H          -1.47482348583202    0.79498273467487   -3.52029833851780
O          -0.10883110660727   -2.43449141051177    0.15980967104996
H          -0.65949819092195   -1.81093028519299   -0.34963626132409
H           0.69128135040868   -2.55896116714851   -0.38754481068385
O          -0.38192597300914    2.79065265767544    0.83994236487786
H           0.52497688224862    2.42117278157288    0.94506202803779
H          -0.56782024673680    2.71020561874573   -0.11850578005244
O           1.69162168388887    1.12459711030144    0.87993339648461
H           1.52960350826665    0.82819016693454   -0.03407208036701
H           1.43971131512212    0.38220606125918    1.44694528621385
O           0.41492094534065   -1.01543865012933    2.24900229686289
H           0.26355495368043   -1.62208296072205    1.45793729830746
H           0.61265721275015   -1.58554990350548    2.99242963024123
O           2.03892228008705   -2.16095759754167   -1.46202139578360
H           2.94152098118756   -1.99323005996434   -1.18581175914010
H           1.64376012270151   -1.28346404146812   -1.63742441885416
N          -1.59440513357969    0.58987047064876    1.42119413472541
H          -1.65421238640526    0.18899338633914    0.44468049464447
H          -0.91283247867616    0.00250932735015    1.94630365701890
H          -1.17245953013012    1.58770985876797    1.29912457984846
H          -2.50274129925982    0.60394551273639    1.87066670784496
