    26
        -50.47132988  Gyration_radius:  2.51427737384 Dipole_moment: 3.676
 S          -0.78075507546926    0.35257799486434   -1.62368134966589
O          -0.05990415650662   -0.90805870526068   -1.82435008808107
O          -1.22915420163589    0.43979764518626   -0.22905514774147
O          -0.01680878106502    1.50319055487418   -2.02578148541636
O          -2.06936357097644    0.29434940141097   -2.50687417277554
H          -2.48324641694809   -0.53838728026758   -2.22105565548582
O           2.07106367124974   -1.02776087846354   -0.23870228540064
H           1.44160943132884   -1.09247113279330   -0.98544066217357
H           2.32194393272003   -0.08767687970763   -0.21698459710796
O           0.23783403697316    0.47633974435172    3.40973546812141
H           0.26715086962212    1.21046375586406    2.73829467326583
H          -0.48222762832865    0.69422938803941    4.00307553115586
O           2.09562433928713    1.70780033246072   -0.50352617403588
H           1.32503330799023    1.67028895774641   -1.12266816064380
H           2.73353468789222    2.29595749833944   -0.91151352391202
O          -2.27498163510710   -2.24083949270250   -1.62503398379016
H          -1.34297453937382   -1.93262685426888   -1.66113504744292
H          -2.37093451283189   -2.89627172326633   -2.31940485214479
O           0.11692684175524    2.15711264424965    1.39668733394232
H          -0.51013365562693    1.69847290625016    0.80851629847823
H           0.94770100040336    2.17599063179227    0.89707667030015
N           0.00575080279951   -1.21935520237486    1.37286991008958
H          -0.61211806821430   -0.63131199732257    0.74260117993040
H           0.94324047804577   -1.25231981774134    0.86554766953412
H           0.10840997462308   -0.70234787442570    2.28405102081815
H          -0.38322116260206   -2.14714359685267    1.49675145019682
