    26
        -50.46172720  Gyration_radius:  2.55680840024 Dipole_moment: 5.141
 S           0.25673320655873   -0.71822337601511   -2.01214859546629
O          -0.99781163016455   -0.01220625480150   -2.19697555554643
O           1.41094343044106    0.15293664598002   -2.17225415329890
O           0.31268505354344   -1.49035670106544   -0.78900461339182
O           0.34054058596866   -1.77847773088626   -3.19028564319850
H           0.22254362511935   -1.24033760958949   -3.96689443490714
O           2.50006900903531    1.31038820985490   -0.14518234760145
H           2.14492164443054    0.85771663219549   -0.95791526461186
H           3.27542982027812    1.79607374669374   -0.42926446618918
O          -0.29215199628838   -0.04200065928245    3.21798048413369
H          -1.09559068626152    0.09850983660256    2.62545778103900
H          -0.18062830334257    0.78594692353001    3.68810080764197
O          -0.37815478206015    1.69995187505964   -0.19003284704012
H          -0.60084470157090    1.19660206456912   -0.99010189684926
H           0.57679849943942    1.82256421685092   -0.18942227141813
O          -2.83466330045825   -1.05674521728035   -0.53258352797012
H          -3.65274440981607   -0.76035311491267   -0.93648809722273
H          -2.12029423043462   -0.76613011035718   -1.13186459792949
O          -2.14788642450533    0.55691998090051    1.53999776584884
H          -1.60111430677014    1.12735189419277    0.97030192684609
H          -2.45656615623926   -0.15199889008382    0.94099690564880
N           1.47916422629187   -0.67861417678016    1.38722386484855
H           0.77900071812706   -0.40746086172445    2.14970400631134
H           2.11533388049111   -1.39109650510416    1.72884459215512
H           0.94735387359714   -1.05728878139183    0.54497629366615
H           1.99693333461783    0.14632794282170    1.03683389454197
