    26
        -50.46734221  Gyration_radius:  2.50791342406 Dipole_moment: 2.145
 S          -1.15611726976484   -0.57457518921842    1.41103956783630
O          -1.95151187628055    0.22520630328774    0.49023806428658
O          -0.77257108936576   -1.84912027731965    0.81794365568551
O          -0.01631735326312    0.14121328187921    1.93850704883638
O          -2.10258944351170   -0.90029808669777    2.63409725727902
H          -2.92437943926360   -1.12854094231478    2.21118419573938
O           1.82642297680972   -2.14435489915198    0.21221004189862
H           0.89151795920590   -2.06978883808694    0.49977822983740
H           2.27314928198299   -2.63501987347782    0.90274298704036
O           1.67050703360479    3.14122714429252   -0.05989559206495
H           0.68858216259867    3.11723133482538   -0.08991608206198
H           1.89623079497396    3.48990354318104    0.80376414336516
O          -0.99025182872642    2.68395383113649   -0.14708241646561
H          -1.25230662165298    2.64368678242272   -1.07035234896902
H          -1.34715645288709    1.87013164272805    0.25495852081904
O          -0.45482191540373   -2.57543374992294   -1.77890068679013
H           0.47368271776460   -2.81727903650042   -1.71966475253555
H          -0.74774878657532   -2.47327661678711   -0.85608891450103
O          -0.70163731121633    0.09644090493381   -1.87584279755512
H          -1.33394211311020    0.14321341044744   -1.13325893051965
H          -0.65662994240576   -0.85640813109285   -2.10162010912179
N           1.36872782254061    0.49764698200561   -0.28234684223895
H           2.02977113889937   -0.28251901236155   -0.34217084851196
H           1.78853926712368    1.44964036148947   -0.32729838311222
H           0.62446679471276    0.39307729074645   -1.03651794989978
H           0.87638347321383    0.41404182956877    0.64449292172464
