    26
        -50.47201767  Gyration_radius:  2.51734489315 Dipole_moment: 1.460
 S          -0.48174244957322   -0.80806818897618   -1.76406862579398
O          -1.67944075782816   -0.94532363334586   -0.96280926617691
O          -0.46805239128161    0.35557996436779   -2.62392966512470
O           0.72693223285887   -0.88454404774591   -0.94292441231354
O          -0.44742027044504   -2.06943343897774   -2.71889019859951
H           0.22213043300135   -1.82178324153273   -3.34746010823830
O           2.18140075015588    1.29615586730918   -0.18128567026270
H           1.49938857641788    1.94806024867471   -0.40232804382332
H           1.84362477302348    0.46351561591960   -0.55354642511689
O           2.30548847468941    0.69241527799924    2.40831194905593
H           2.33836892589673    1.03882187562522    1.48238214610787
H           3.16881299888420    0.31517092531499    2.58030407308800
O          -0.17225836454864    2.45461547962910   -1.11072440234083
H          -0.36939740450947    3.24174326680615   -1.62125552020605
H          -0.27246170951583    1.69115300098949   -1.73256690389072
O          -1.57842056351859   -2.61741411389634    1.14430507470258
H          -2.37428412953642   -3.14816056649788    1.18819797317870
H          -1.65238081991452   -2.08598271850358    0.32625702918870
O          -1.76658902010244    1.17751649242767    0.71200459539125
H          -1.26178114050635    1.82740069628105    0.19240441342436
H          -2.01335081868776    0.48158573565345    0.07728123906833
N           0.05870044351279   -0.52747316181914    1.60517973233532
H          -0.66731994904787    0.22861192893745    1.47474723993756
H          -0.39648068865766   -1.36720184052724    1.97486285368740
H           0.38897384773904   -0.76002723457171    0.63602220187333
H           0.86755902148893   -0.17693421955730    2.15952873085936
