    26
        -50.47251618  Gyration_radius:  2.47002259487 Dipole_moment: 2.665
 S           0.49610733455744   -0.53164059090352    0.47773552646001
O           0.56110060799066   -1.72223171697536   -0.36143146065380
O           0.41721272992779    0.67994388438756   -0.37018104207703
O          -0.59804723818203   -0.58916361591457    1.41578751731326
O           1.81281725153230   -0.40522630432060    1.28424955898972
H           2.48900947199146   -0.09216990556813    0.60778258986610
O           3.13754977729192    0.46166384924716   -0.72543361847913
H           3.15881810471409   -0.32892538498919   -1.30925219775906
H           2.33500951526158    0.93747675176093   -0.97659374468704
O          -2.41347529915198    1.34864652880923    1.72079412907085
H          -1.90846347888976    0.53232308170565    1.89906066242397
H          -1.73027216141919    2.04274928137714    1.79886435768565
O          -2.06665742798950   -1.94111411709044   -0.63230891938390
H          -1.08559565126097   -1.98858164919484   -0.63775490095631
H          -2.31060545225567   -2.15870886254911    0.27154615096506
O           0.04171278989134    2.48455824720319    1.58162032126026
H           0.61344226525744    2.20736282942133    2.29979833417038
H           0.25194598737954    1.89662862712102    0.83199598358128
O           2.62058882932042   -1.81220704176822   -2.02008102236126
H           3.07756591689806   -2.63875560568356   -1.85558509684254
H           1.79826473281663   -1.84453140554802   -1.48417551512334
N          -2.16874549353086    0.70989042684683   -0.79519966044512
H          -2.31876531944936   -0.33499915776777   -0.83405096362297
H          -2.62497509031208    1.20034794439291   -1.55648591681929
H          -2.46437711303623    1.06048441720077    0.17733098718196
H          -1.12116556934037    0.82617947879505   -0.80803206976182
