    26
        -50.46438375  Gyration_radius:  2.48339134336 Dipole_moment: 1.611
 S          -0.02899399142197   -1.07288940319778   -1.04099188589612
O           0.60960561320962   -1.98618744068838   -0.12364049604100
O          -1.09567076136201   -0.31397313164866   -0.34958630545695
O           0.90597196076679   -0.16239145861151   -1.67564433636296
O          -0.71960974644902   -1.87485614902257   -2.18710248996608
H          -1.43207248183798   -2.35550474341507   -1.72360530663489
O           2.43177682515893    1.17915088521025    0.08346476315112
H           2.13235752989055    0.52402988450814   -0.57731862018616
H           2.23375740729732    2.03154862130404   -0.32425030102344
O           0.88520415999247   -1.88109463477955    2.49983801911210
H           1.74614953902518   -2.25436333942990    2.69602688074172
H           0.72772445149947   -2.06890532687828    1.54608923639013
O           0.58284663265334    2.48287920728458   -1.66360644506020
H           0.62173306904494    1.50564976906629   -1.75078916870809
H           0.41210945322217    2.82244252319932   -2.54286404314409
O          -2.66332505437251   -2.42989591756900   -0.47893018370496
H          -2.23188712636238   -1.60151155701070   -0.19390986860903
H          -3.56974653220910   -2.20848833476333   -0.70420962379077
O          -1.24675791497175    2.45005458007787    0.44765734175344
H          -0.61544933515457    2.72289413106464   -0.23574589459232
H          -1.61754638159796    1.62680325742951    0.11150373792081
N           0.38848024706844    0.58662725106135    1.67185030026229
H          -0.06028882147837    1.36938853525458    2.14522660382397
H           0.59686359204680   -0.24065208698820    2.27762138076556
H          -0.26368060775965    0.24914826814441    0.91721898076511
H           1.27044826410380    0.90009661039833    1.17569773449024
