    26
        -50.46886482  Gyration_radius:  2.5963698902 Dipole_moment: 6.612
 S          -0.17801207718804    1.52526323195780   -0.90220826454329
O           0.53973970753193    0.97194051160258   -2.04507669347479
O          -1.58427343895401    1.14645165393395   -0.91702017553164
O           0.47054794508791    1.17950723666702    0.35430038428164
O          -0.11016256880189    3.08991958710604   -1.00631974595218
H          -0.54597171734454    3.25450181192776   -1.86420518816086
O          -0.66322489606485    0.16012944406981    2.44644498758951
H          -0.23688885920354    0.57572152298581    1.64937972009366
H          -0.81232990618504    0.88092067834773    3.05998594169104
O           0.89200643029192   -1.99155233312889    2.84158166833491
H           0.41881358453203   -2.55983638968662    3.45114650733380
H           0.38492004315687   -1.15025814486715    2.79603639001759
O          -1.34300510574142    2.48536176625385   -3.27303543651385
H          -1.95112061968569    2.01339957241047   -2.68787635751190
H          -0.58879328665379    1.88538149338112   -3.36401042500921
O          -1.67208834929339   -1.20392121979600    0.20594039316841
H          -1.72623722553321   -0.36830669838230   -0.31713174929342
H          -1.68454483959956   -0.89802017484109    1.12352081976728
O           2.38446322210509   -0.38585875387355   -0.83122630635941
H           2.46040902332525    0.21667837652222   -0.08344734581783
H           1.77175321704314    0.09511593779601   -1.44170970936312
N           0.76115812491852   -2.20823027249550    0.15182702904097
H           1.44543544985450   -1.50588083487295   -0.28082373666754
H           0.84587685979939   -3.11234074084757   -0.29931200176124
H           0.95407660034894   -2.27241544178314    1.17547892659397
H          -0.23254732777667   -1.82367184040318    0.05776039803280
