    26
        -50.47343690  Gyration_radius:  2.45086252614 Dipole_moment: 2.568
 S           0.04912306707175   -1.24566297883458   -0.93409369392411
O          -0.52475691663196   -1.49214029421099    0.39089086889528
O          -0.76815403011500   -0.30345948624523   -1.68516442793392
O           1.43323097888036   -0.81689750477532   -0.83778792497261
O           0.05487205788904   -2.60357780718891   -1.70340905855595
H          -0.89073508618777   -2.84956185713444   -1.70373908209772
O           1.23344189762002    1.81929106474139   -1.13755292325394
H           1.38958960326330    0.85605349845387   -1.07005568509087
H           0.61605571134898    1.90906758861806   -1.86691169918711
O           3.03662313503074   -0.24466446423583    1.19809608007507
H           3.48244508009441    0.54665120726263    0.88702873787039
H           2.58740572897122   -0.61684288881283    0.41050126535422
O          -0.12417875035790    2.37042924145058    1.11939995368906
H          -1.00330565028637    2.12627805922900    0.76292302545587
H           0.46733501518642    2.34950335426524    0.33568083627397
O          -2.52933799845783   -2.36949672383586   -1.20877880294861
H          -2.20307550505477   -2.18727815887836   -0.31551315794781
H          -2.47278250350622   -1.52409208687002   -1.66996143711763
O          -2.21813170097488    1.31120492057429   -0.18207154576239
H          -2.78740139318664    1.78240554624873   -0.79262962896492
H          -1.68474467685144    0.68826849859740   -0.72489851421111
N           0.57062773576127    0.09608157361893    2.17866718810743
H           0.27359849825075    1.08346134952411    1.86007558882881
H           0.08039003154177   -0.58998059723787    1.54027229937149
H           1.59833695566221   -0.01598447825278    2.00045586788749
H           0.33352871503624   -0.07905657607469    3.14857589015313
