    26
        -50.46999605  Gyration_radius:  2.51766867447 Dipole_moment: 1.000
 S           0.94166058383328   -0.10109451279500   -1.62855600426080
O          -0.34618957422317   -0.71221527511703   -1.88322459997480
O           0.87293326101888    1.32801409551296   -1.39728678220205
O           1.65961059493107   -0.77744795576961   -0.55031779624423
O           1.79339117650880   -0.30776164055175   -2.94388662093269
H           2.57324080081071    0.21399687190964   -2.78200891916938
O           2.30260214212994    1.14551636802518    1.21679287031997
H           1.84453397507639    1.89715195940357    0.83226492291500
H           2.22266282350906    0.43308856141013    0.55494101489557
O           1.25401740666942   -0.13897062994238    3.36311516326265
H           1.68739508512792    0.44201443050682    2.70083778060606
H           1.95969652636653   -0.61800370985774    3.79881490898476
O          -2.70317948368904    0.48010535088926   -1.56637198969363
H          -1.84796473015873    0.05565488326865   -1.79256304291211
H          -2.98810602619351    0.94762094708562   -2.35238226832638
O          -2.06357932141494   -2.10959249489516   -0.22066372431066
H          -2.82257599232320   -1.54892992573377   -0.41108570648497
H          -1.42722971573237   -1.90837599030272   -0.92661689622628
O          -1.11150756351919    1.63462871266079    0.32936441316397
H          -1.88924335794759    1.40164021749350   -0.20810754401728
H          -0.37745326317390    1.70757687472089   -0.31474537357933
N          -0.31710736790331   -0.71271156330710    1.26129563436511
H          -0.68807043455730    0.25803304928183    1.03971623809648
H           0.47937166370863   -0.88116544511781    0.60823149163107
H           0.04957526063555   -0.72298502881266    2.23096160506386
H          -1.05848447948912   -1.40578814996280    1.04148122502810
