    26
        -50.47150083  Gyration_radius:  2.42616927724 Dipole_moment: 3.411
 S           1.08290375833992   -0.29230857869989    1.51023971013893
O          -0.30181180667122    0.10752112905057    1.71336654251088
O           1.24293650466268   -1.73314561920575    1.62909947367931
O           1.64117617245902    0.23565680806044    0.28158276044475
O           1.91944503454070    0.35866801917213    2.68089955002564
H           1.53620310824149   -0.04276008890837    3.45348914577088
O           1.65410354266744    2.87055668243579   -0.11308980169070
H           1.77066267497800    1.92447061485007    0.10575865217329
H           2.14965435286812    3.02185759950424   -0.91953332986980
O           0.63778864192323   -0.68818285151513   -2.02681414353946
H          -0.18286536787746   -0.16340755200546   -2.08539509415044
H           1.15013868284170   -0.27770780900303   -1.30308486585862
O          -1.70426716519967    0.69011729434424   -1.69652709522839
H          -1.43120065361405    1.34993513520789   -0.99035058993027
H          -2.29186094392566    1.16079586132417   -2.28822436626052
O          -2.22553454834901   -1.13878846037390    0.28836740081136
H          -1.69787600538814   -0.67489775500869    0.96735072210414
H          -2.25766247924683   -0.51615720193262   -0.46181811740387
O          -0.97691225279265    2.25502123708628    0.23701865923253
H          -0.78495325951666    1.56220453362568    0.89695657711159
H          -0.12050416728129    2.69305443670619    0.08109185309482
N          -0.16178527939668   -2.58188437595368   -0.40354331073118
H           0.20307617597666   -1.97772264735637   -1.20319647110287
H          -0.19514207780173   -3.56739517956810   -0.63805484664227
H           0.46244001043102   -2.39341357715246    0.42913596712402
H          -1.11815265286804   -2.18208765468465   -0.14472497181341
