    26
        -50.46409896  Gyration_radius:  2.60059730812 Dipole_moment: 4.151
 S           0.54134640462268    0.87458803391348   -0.34814896727559
O          -0.44678818306014    1.22443508502904    0.67636384875599
O           1.52178327210423   -0.06673766234221    0.17227608024303
O          -0.11931416695940    0.35180930715366   -1.54407177565112
O           1.25971000731472    2.16826357942869   -0.79304987496572
H           1.71721527059624    2.54134406985104    0.01200979566213
O           2.26724276358414    3.09900991989048    1.40666461477770
H           1.75529706092154    3.86342998880364    1.67918964545793
H           2.01073715235040    2.36065004054171    2.01906364310171
O          -2.52721929006365   -0.32366515076473    1.17069055244351
H          -1.75852978230297    0.28626509672471    1.07296319294756
H          -3.30831132618965    0.22645560917156    1.09623972482940
O           1.26865209406939    1.02519209948387    2.67686131359626
H           0.48107145944049    1.10359382928529    2.10116090421393
H           1.76805796371006    0.30546614974431    2.27516306465114
O          -1.46371483669798   -1.25092722410057   -3.41964442515495
H          -1.49190923508548   -1.02219535125389   -4.34939218780907
H          -0.94573411409016   -0.55660394952322   -2.98628657295078
O           0.99919553804567   -2.62789460153399    0.31922773050301
H           1.69125181815948   -3.07072239271483   -0.17438774862368
H           1.25133441080452   -1.67134483464018    0.33266757127018
N          -1.31878516584739   -1.80414788540763   -0.67725653735952
H          -0.54520935318954   -2.37788601789351   -0.26716681643697
H          -1.97503830230359   -1.47119658575974    0.06260733822488
H          -0.84741824201832   -0.92776376175264   -1.05397268654788
H          -1.78492321821850   -2.25941738117592   -1.45977142801285
