    26
        -50.47208050  Gyration_radius:  2.44927259649 Dipole_moment: 1.567
 S           1.10929494087138   -0.76152921397724   -1.62010032461259
O           2.12746773434153   -1.04778635023253   -0.62741163337277
O          -0.15322315531636   -1.42333239348883   -1.30886686437306
O           0.93398490193475    0.65252944576639   -1.88462237159988
O           1.62757841178945   -1.39160652991772   -2.97826936444311
H           1.95203226704335   -2.24381136387050   -2.70576870180019
O          -2.48690778651010   -0.47648196650309   -0.33307253605685
H          -1.78867934972671   -0.98549132389697   -0.78570755664789
H          -2.27831201042699   -0.55129537427470    0.61538239984151
O           2.17038269837290    1.27648336811098    0.64188720978359
H           2.21640289871028    0.38246243227001    0.24650278016347
H           2.32595099475166    1.87258796660005   -0.09376847574201
O          -0.22734396954423    1.94997105478338    1.64127984153688
H           0.70982804220585    1.74039906964435    1.43367156176839
H          -0.60874435195507    1.12976163959895    2.00140915968132
O          -1.32093820558073   -0.51753332440987    2.18658409476088
H          -0.63670537228774   -1.16611844398607    1.87114828593204
H          -1.66719550069861   -0.86923970581440    3.00739568958644
O           0.40166318798735   -2.20524595933809    1.15057609213546
H           0.12006302614208   -2.07823555042384    0.22097894130715
H           1.32761444899794   -1.93926496110852    1.13708823457093
N          -1.18642662816674    1.75993959128323   -0.78092403340087
H          -0.84169088027368    1.99390805010941    0.20775111153659
H          -0.35910358744208    1.38068262858565   -1.31255137118257
H          -1.87612733102719    0.95655562694356   -0.68065525918222
H          -1.59086541419992    2.56169157754585   -1.24993691018112
