    26
        -50.47016637  Gyration_radius:  2.5132020672 Dipole_moment: 2.287
 S          -0.93777542286095    1.56409571176202   -0.34543073442913
O          -0.19268902498354    1.11680265944241   -1.52158833575095
O          -1.98232001571163    0.60391977415060   -0.01135398408796
O          -0.08553886028801    1.89221737205342    0.76714223682262
O          -1.66877819653535    2.89654432275754   -0.77791121699289
H          -2.09825161226190    2.64871380418540   -1.59062903853933
O           3.14451274655900   -1.05078213407877   -1.38861372807932
H           3.02490015514617   -0.11377243078218   -1.12079123368842
H           3.55270423990703   -1.02885709154770   -2.25472376499014
O           2.37180913430104    1.47502993369005   -0.77787266644707
H           2.23329300995982    1.77494819151486    0.12439835700948
H           1.48316967542034    1.47353144263703   -1.17680146135351
O          -2.04278392416209   -0.70448895621529    2.30407791820396
H          -2.09293559186296   -0.16230392320620    1.48725535970213
H          -2.49185171385220   -0.20391200483410    2.98634216795508
O           0.63595617406136   -0.36346722705825    1.98064343692694
H          -0.22963196054744   -0.65802414095576    2.31959721120124
H           0.48834721764074    0.56331700473214    1.70885819190704
O          -1.91036359349504   -2.13032752281112   -0.34714356058512
H          -2.12981508132294   -2.36115885119471    0.56049327189640
H          -2.10263749094719   -1.17852951212544   -0.41117049768675
N           0.61390621489476   -1.23924921951301   -0.51518332991149
H           1.52908027482502   -1.52673194250632   -0.90853801351077
H           0.30889935242339   -0.37100611592812   -1.00831037220545
H          -0.15846862712108   -1.92623326778257   -0.59445304405339
H           0.73726289080196   -0.99027586637366    0.51170684067723
