    26
        -50.46147052  Gyration_radius:  2.59195511899 Dipole_moment: 4.229
 S          -0.21710462060630   -0.50721246772317    0.50231059012317
O          -0.67289862959933    0.66400538271939   -0.23326051127828
O          -0.21215813316896   -0.33235409886451    1.93474988319128
O          -0.95968724422432   -1.69970525450747    0.05905542868417
O           1.25387156180045   -0.78502014309544    0.01948584976378
O          -0.29545591338436    2.34512705188505    1.83853449914547
H          -0.37493411063928    1.45502919015169    2.22030709040932
H          -0.51394795364899    2.18521866044082    0.90899491771093
O           2.35857862072535    2.54523760228154    1.97176245975964
H           2.58852388733029    3.09774679159640    2.72035321671595
H           1.37546626890439    2.59039473993392    1.88794765978390
O          -3.12894046201539   -1.10546720789094   -1.43570179624225
H          -2.43128114438306   -1.38467787646953   -0.80968820174563
H          -3.76496213616516   -0.61013767239229   -0.91750924266233
O           2.46023465715175   -0.12064478537731    2.15098611792463
H           1.85672643894324   -0.54315047883991    0.79659368066130
H           2.58283063576205    0.85507419454681    2.08033814853576
H           1.59365216547444   -0.24587595681108    2.56705398657534
O          -1.21365347259239    0.23275356472680   -2.76390137617085
H          -0.35343111113912   -0.98110284646210   -2.64861891810507
H          -2.09477378543016   -0.15406342084855   -2.58311886368885
H          -0.96770183550581    0.62200965321456   -1.89148645130759
N           0.17852145518282   -1.85384042495177   -2.23727431998959
H           1.14814974574924   -1.61219104817326   -2.03847747461601
H           0.10252038337777   -2.68112694518460   -2.82024894963471
H          -0.29814527790180   -1.97602622391401   -1.27918743354011
