    26
        -50.46116217  Gyration_radius:  2.44697594228 Dipole_moment: 5.248
 S           0.85648465973928    1.80391651993026    0.71615318105666
O           0.41975364189316    1.68602844829594    2.10807932358428
O           1.70246402920555    0.67552626963125    0.34742536147640
O          -0.23733569476241    2.00415655631520   -0.19818676131149
O           1.76478908842258    3.09346022445835    0.64607363481350
H           2.45395243896600    2.90077865482299    1.27409243499080
O          -0.25330713209616   -2.29195289485416   -0.90774362330179
H          -0.74120135853244   -2.83346655414007   -1.52911727330354
O           1.07099926653561   -0.14391443918266   -2.17704567304061
H           0.87909951399718   -1.05314398254793   -1.90788870305436
H           1.35004986216857    0.30339154347727   -1.36013879534822
O          -1.45366154030228    0.62236421605657   -2.83335924302245
H          -1.45808041703882    1.56774241861475   -2.66731593681683
H          -0.50917190766078    0.36474837546708   -2.74655620428895
O           1.28211190334240   -1.77906858720392    1.28505054372527
H           0.94252906689805   -2.22023166226861    0.48957169629965
H           1.63618512035369   -0.92075461910732    0.96460566936165
H           0.01275355301923   -1.21081673689579    1.94539589841934
O          -1.74764890926757   -0.13523628346432   -0.31640697895357
H          -2.01475228639721   -0.02645631038203   -1.25544310682238
H          -0.82912043046223   -1.51964038574027   -0.69396225690293
H          -1.19426000173928    0.67343360010791   -0.20120277259478
N          -0.81618280308442   -0.57067151909828    2.21612158408780
H          -1.48373484826853   -0.55303958790058    1.43285637603817
H          -0.37204358393108    0.40666746258516    2.28336908012404
H          -1.26067123098749   -0.84382074701293    3.08557254476237
