    26
        -50.46400337  Gyration_radius:  2.43637685985 Dipole_moment: 6.320
 S          -1.93149658522429   -1.05261687979237    0.48522901360846
O          -1.47881708413968   -1.55864174253377   -0.78886515365698
O          -1.58003069038717   -1.89831645144686    1.60312692151587
O          -1.55066449334023    0.34666824575740    0.69296393720202
O          -3.52149960332543   -1.01567932584853    0.43131757304100
H          -3.72668457120343   -1.94420227018045    0.41258329375587
O           2.16187722486053   -0.72994374065626   -0.95871491426445
H           2.90726863210148   -1.31313663276727   -1.10626451734609
O          -0.74243205752571    1.80932213934262   -1.34895016140703
H          -1.23738767621093    1.34150097208129   -0.63934354142539
H           0.54696414590395    1.89278407383163   -0.70699815089909
O           0.40955673802782    1.03303841444674    2.22338935278927
H           0.06350818656894    1.45188220711920    3.01227388923028
H          -0.38779153503719    0.74111645048175    1.69993851629587
O          -0.06617155879463   -0.34449514366233   -2.66769310603042
H          -0.66990446798754   -0.88300919048222   -2.11466764394048
H          -0.56957983100521    1.09978005334597   -2.02612336671751
H           0.81092416771045   -0.53656740050721   -2.30761367354265
O           0.99164131044242   -1.54353781418563    1.22795647498225
H           1.05045649008417   -0.78849787349782    1.82764100506581
H           0.06006164796675   -1.83957705445549    1.30147851774168
H           1.65159279027221   -1.12744203713690   -0.20031113072986
N           1.50667403878349    1.77129311675050   -0.14505269696308
H           1.23770105926238    1.62420082266761    0.84770722326170
H           2.12317823541566    2.56742369836502   -0.25566167540465
H           1.94105547678080    0.89665335296247   -0.49934601616355
