    26
        -50.46400368  Gyration_radius:  2.43620021416 Dipole_moment: 6.316
 S          -0.49080844560103    2.19824295313767   -0.01287290589737
O           0.46349760670628    1.98014912937247    1.04837050429357
O           0.10607779806168    2.66905075630001   -1.24186807037126
O          -1.36741073973688    1.04234118273822   -0.21643364912588
O          -1.47598447300784    3.34717439919170    0.47874035111549
H          -0.89181010997259    4.09760330797255    0.49299816984711
O           2.09251659441065   -1.29241168608497    0.27582976688206
H           3.02345917639184   -1.49253081236543    0.17207790498938
O          -1.51393909971724   -0.84061724457078    1.62577632060173
H          -1.62407793780354   -0.05307233979800    1.04691061713666
H          -0.93921332933333   -1.74883205042666    0.66344117515065
O          -1.04635392935668   -0.61003670092201   -2.17164288585528
H          -1.75661094525949   -0.49448456261215   -2.80389516844182
H          -1.19033083334076    0.08651848484696   -1.47242991523332
O           1.49138938852504    0.46424952993411   -1.55899431194087
H           1.13096770872532    1.36112237987427   -1.39615515503735
H           1.90778412682604   -0.53077641949231   -0.33990569787480
H           0.81688612597067    0.02949832129325   -2.09675001513131
O           0.83580948524346   -0.16467589623447    2.55189807330808
H           0.74895645937265    0.72376924798236    2.14761230708617
H          -0.71452993591068   -0.62051410320981    2.17741383614249
H           1.43316482776953   -0.63419509855105    1.95309170985972
N          -0.39134598583756   -2.29214179473379   -0.14678487084700
H          -0.67267542678611   -1.83415762512421   -1.03598759922307
H          -0.59379841166534   -3.28464692242717   -0.15225183991861
H           0.61838031532350   -2.10662641608841    0.01181134848520
