    26
        -50.46400422  Gyration_radius:  2.43658874387 Dipole_moment: 6.316
 S          -1.78916314134418    1.31094970451002    0.39616925544713
O          -1.83345750601223    0.94136990401752   -0.99886921117041
O          -2.62286084559947    0.48661129205069    1.24099032840115
O          -0.41710639504723    1.42649473090087    0.89629110977791
O          -2.36364126748450    2.79122651811590    0.50095321110901
H          -3.27282410845477    2.65350385738357    0.25811760046926
O           0.35956674174008   -2.07730411250903   -1.29759561378577
H           0.15364118272512   -2.94590769510075   -1.64480769151125
O           1.59497692634238    1.56608661487150   -0.80535288047043
H           0.84901526413063    1.72835233012505   -0.18533901186383
H           2.05180196264901    0.30097395538294   -0.28173769189676
O           0.67614980070647   -0.39585918235694    2.35890526310195
H           0.20126881328307    0.32337384345195    1.85677983711812
H           0.76928730423124   -0.06955042917072    3.25473982173847
O          -1.23646563839998   -1.67943390009966    0.72802324577187
H          -0.33896248792730   -1.88533735969700   -0.61272018645000
H          -0.64341694620730   -1.56725086604786    1.48230811078998
H          -1.87866740692695   -0.94364134457996    0.81348112003641
O           0.15868253153265    0.40268760404561   -2.65517154916458
H           0.25819040525022   -0.53337229859183   -2.43210100243347
H          -0.66418012286772    0.66797706448477   -2.19398519539496
H           1.14750691474423    1.27137490364055   -1.64472605848072
N           2.20979800794083   -0.72064252553956    0.14511153180856
H           1.65469773696989   -1.37049646696820   -0.44575939563188
H           1.78799910412715   -0.70032693009891    1.09443469558261
H           3.18816316989888   -0.98185922222007    0.17186033710177
