    26
        -50.46400375  Gyration_radius:  2.43612409422 Dipole_moment: 6.316
 S          -1.70057445720286   -0.38826959952994    1.42500818667953
O          -2.16771483459064   -1.70145572169562    1.04354518925491
O          -0.48183141926060   -0.40896573512934    2.19879750813352
O          -1.62170826022555    0.53552826861338    0.29090303306581
O          -2.82917674992071    0.23915221838672    2.35508798092262
H          -2.92273863626338   -0.43911245493035    3.01524384399410
O           2.26653300048471   -0.95517345673231   -0.27183599664849
H           2.93788369536686   -1.63833608533177   -0.28401005875075
O          -1.25271952945150   -0.27301438030817   -2.13113440760976
H          -2.06008969616251   -0.15255399062713   -2.63232172513814
H          -1.46978989365059    0.00245349180643   -1.19746577655579
O           0.29344055456662    2.34792056628500    0.19965468617801
H          -0.53080001232729    1.82788952175402    0.33224404080504
H           0.79973223904916    1.67308383929341   -0.97041441726463
O          -0.04172949055604   -2.16495863207189   -0.42153814802546
H          -0.43750812272246   -1.82821961161916   -1.23585746648660
H           1.39450324422512   -1.43208993173709   -0.19810059639666
H          -0.76222283681380   -2.10738805646076    0.24054454592328
O           1.77648497630138    0.91126247150261    1.80320185942245
H           0.98169747767677    0.44078617333232    2.13070072636653
H           2.18347074582289    0.28082995991047    1.19257119282989
H           0.91008202104258    1.99902231815687    0.89965848484959
N           1.12747480789939    0.98231126612900   -1.78736851378878
H           1.62070483655898    1.46583932754172   -2.52833945085613
H           0.26283372024297    0.52175648048725   -2.13341391111149
H           1.72376261991005    0.26170175297464   -1.33536080979294
