    26
        -50.46400382  Gyration_radius:  2.43620019573 Dipole_moment: 6.316
 S           1.67882985517073    1.49312697618600   -0.16221574755078
O           1.78363470170459    2.02931337191918    1.17562700641643
O           2.26035146531828    0.17960793998062   -0.30724616443636
O           0.31454490911143    1.55709501512323   -0.69188471969123
O           2.50487744126359    2.47216399200293   -1.10644278413689
H           3.34876863625386    2.48334534492183   -0.66787157626159
O          -0.24887392005333   -2.19145897773741    1.12250753889346
H          -0.13485988531638   -2.84340529941545    1.81495083467517
O          -0.57361903711185   -0.35638986224480   -2.27632709321469
H          -1.53255372394498   -0.68461082321810   -1.25007385606819
H          -0.18362593722808    0.44991343995034   -1.86990485044695
O          -1.76579155509742    1.54008236773099    0.83393844454779
H          -2.17341126703836    2.40689802408578    0.82436203815596
H          -0.94312773683688    1.62127818734553    0.27587788759993
O           0.27609434256757    0.13454519675711    2.18461082690248
H           0.07833177083808   -1.33034756809335    1.50298896389321
H           0.97379722202237    0.75541432496189    1.88708194940201
H          -0.54531174165395    0.63377341546074    2.08869270834358
O           1.19352956092385   -2.02363082628542   -1.31089340162380
H           1.74829018024378   -1.27429324521233   -1.00917765115235
H           0.76090904024904   -2.33172862117914   -0.50227206222126
H           0.11580668840236   -1.05828934080192   -2.12115739363486
N          -2.13115057291525   -0.88474654115981   -0.32611959599693
H          -1.55847241632673   -1.52627996568585    0.25657869529148
H          -3.04150205057181   -1.27821636330696   -0.53245474682850
H          -2.20546594997606    0.02683983791522    0.16682473914303
