    26
        -50.46183256  Gyration_radius:  2.40568555232 Dipole_moment: 6.581
 S          -0.19218994281992   -1.98869147003476    0.22034629845151
O          -0.29129941555214   -1.60820361532728    1.63553142186539
O          -1.47132410973524   -2.03278110482527   -0.43326109284497
O           0.81454316324282   -1.19069847013867   -0.45211847440551
O           0.36493692932837   -3.47630329668322    0.21425346061027
H          -0.42374820480097   -4.00979308248829    0.24064142393644
O           0.48358600847311    2.34611762200663   -0.64592092000845
H           0.01307884265300    3.12906547679456   -0.93468417306613
O          -2.43927661659776    0.17998562730804   -1.76589930851969
H          -1.62576525920485    0.28524737582875   -2.30153539821372
H          -2.41146475433924   -0.74452146988006   -1.47798888294961
O           0.13716107921745    0.31621073653413   -2.61370213305714
H           0.39909078931842   -0.37712529118455   -1.98416815053973
H           0.42800300889707    1.14154848469939   -2.20253446999551
O          -1.31323851117052    0.75254440124737    0.53149404774332
H          -0.18630416173441    1.76503163218690   -0.21224221125441
H          -1.89130419145156    0.68254255029063   -0.27707907675704
H          -1.13390204479010   -0.16893924710187    0.75572173702908
O           2.45095636332188    0.73810572214924    0.33538550183884
H           1.61807152552402    0.72883443330539    1.59527182242102
H           2.05332434376648   -0.07142224681332   -0.05201495205985
H           2.05361781405788    1.46662340319772   -0.16867981647837
N           0.84538585451817    0.59454859895223    2.35408656764465
H           0.43593549322389   -0.38131499597676    2.15973899990210
H           0.08480712652618    1.25154546859471    2.17734588442219
H           1.19731887010250    0.67184274733492    3.30201190432592
