    26
        -50.46183250  Gyration_radius:  2.40564665949 Dipole_moment: 6.587
 S          -0.89640732636401    1.58602212521308   -0.84927390393064
O          -0.63347555980132    1.13844922395232   -2.18936387622248
O          -2.08719850980212    0.95571880726288   -0.26433168154211
O           0.22793031510077    1.49343577602232    0.06162622851081
O          -1.23800801465955    3.13388111855460   -0.95357180000829
H          -1.63011463191163    3.21758015791303   -1.81757166803320
O           1.47337593853923   -1.68125821503458    1.07544919093133
H           1.87368818116304   -2.52802753502738    0.87427447360649
O           1.05903736239246   -0.99038959898215   -2.64483613336902
H           1.78544818355008   -0.60181016614124   -2.11467683829131
H           0.50251213874175   -0.23039620933054   -2.87101607830972
O           2.52091340939813    0.25929586690023   -0.72722264041911
H           1.78658083383870    0.86900378572202   -0.54114157888003
H           2.48630817608082   -0.38978748341924   -0.01142416387131
O          -0.56779342751732   -1.36592301980219   -0.62346237969827
H           0.72115700566432   -1.57403205321697    0.44520472781074
H          -1.02930339600704   -0.52682872367564   -0.74410179960460
H           0.00246391638515   -1.43240909657294   -1.43786524708502
O           0.54762373369929    0.46064036584703    2.48014589132258
H           0.53791758319292    1.04077014342436    1.68837888154678
H          -0.81235266884737   -0.14953677935427    2.23850826323509
H           1.14495778196754   -0.26585040683708    2.23906538119729
N          -1.74147542376553   -0.53428657440933    1.81450454925602
H          -1.98400089643809    0.14834877384945    1.01907751279654
H          -2.49266681180424   -0.60281750729252    2.49230947723711
H          -1.55711793281238   -1.42979278550362    1.36131520182426
