    26
        -50.47150108  Gyration_radius:  2.42625205572 Dipole_moment: 3.429
 S          -0.34690596710330    1.45013083017030   -1.14732811078118
O          -1.58333742911179    2.05737517567253   -0.68004680118787
O           0.71568830888267    1.58060771367397   -0.16133705189516
O          -0.52622427581997    0.08380967371642   -1.59595805522819
O           0.11052082323668    2.26734097996726   -2.41903951056494
H           0.16825119593832    3.15460146170377   -2.08093309515479
O           0.92825825812401   -1.72629325643958    1.55560218524578
H           1.43828880486381   -2.41016552405678    1.99045394876463
O          -1.44502348125760   -1.68925677056405    0.19274356945273
H          -1.15301302523203   -1.18704968832525   -0.59300478142577
H          -0.62726431143859   -1.87937157703532    0.69027178235722
O           1.53448058555913   -1.21346787997947   -2.67710066082272
H           1.19137787126654   -2.05056811686105   -2.99386300180303
H           0.75717864461832   -0.68232630743747   -2.41219351393316
O           2.40734393852008   -0.51368778152268   -0.19287197029883
H           1.53813571534555   -1.31465971890175    0.87189762054263
H           2.30728926292731   -0.86374052443891   -1.09690322225357
H           1.92608443575596    0.33520875912964   -0.20100200315567
O           0.22508552170091    0.80154572679361    2.37547541155914
H          -1.29877152085644    0.69717812366335    1.96446359899713
H           0.54601212350737   -0.11612139052872    2.29557996086010
H           0.54122686533820    1.24155973432575    1.56236929593255
N          -2.16821977160873    0.53876199070425    1.36403285463566
H          -2.08432332880923    1.21389205106435    0.55442005840487
H          -3.03258971978670    0.66681675817441    1.87763785413721
H          -2.06954952456415   -0.44212042266728    0.95663363759648
