    26
        -50.46183258  Gyration_radius:  2.40567063731 Dipole_moment: 6.581
 S           1.43718967567734    0.64071293115162    1.25053218025904
O           2.45330826807295   -0.18523365425873    0.65841137774199
O           1.22342248163282    1.89307738836017    0.51347324504857
O           0.17337103736415   -0.02433652253711    1.50144589236284
O           1.98609843873076    1.07140209750949    2.67762103805294
H           2.93082462217522    1.08943137156302    2.55720196881098
O          -1.87838318275348   -1.08358864372942   -1.20487325940394
H          -2.02524971166401   -1.61883144720678   -1.98569358331840
O          -0.23584859045756   -2.55729763676468    0.59611374030491
H           0.00037660229952   -1.75022880564072    1.08439291434168
H          -1.00594282505248   -2.30631392711592    0.06807779808794
O           1.78045322874584   -2.13393517487612   -1.17339613834503
H           1.11091624142172   -2.53927717124565   -0.58419729864281
H           2.35384554063573   -1.63882273924612   -0.56960604322457
O           0.48834760219941    0.12042264597869   -1.52384240636383
H          -1.00421833390555   -0.64286548109526   -1.33174829436215
H           0.94738646913323    0.57909404410320   -0.80937909676201
H           0.99492864265738   -0.73330835807317   -1.61004383806192
O          -2.34715481397039    0.55076799533886    0.92285183657896
H          -1.74665134562499    1.62520941652791    0.04775934750042
H          -2.50708350207266   -0.16616946827501    0.28792001159890
H          -1.50671265427580    0.30185711928602    1.36468564570890
N          -1.09589997026931    2.25808352386551   -0.55796357531624
H          -1.43989538351199    3.20686428290536   -0.65750244443724
H          -0.94424906189549    1.81293809368317   -1.46360499690659
H          -0.14317947530921    2.23034813979090   -0.05863602124859
