    26
        -50.46183261  Gyration_radius:  2.40571859269 Dipole_moment: 6.574
 S           0.47562761309757    0.45608332300183   -1.89912014451730
O          -0.66714787548948   -0.42437974132030   -2.17480722621962
O           0.09339978363588    1.83463450098867   -1.76165102025984
O           1.27418305815614   -0.07189579630069   -0.81009363985280
O           1.40069823126488    0.37447018547640   -3.18803131762247
H           1.07117448985084    1.07393538728793   -3.74439507100913
O          -0.13793557884243   -0.49572979879074    2.42755878103157
H          -0.54621407049214   -0.13857999879437    3.21719045840549
O          -0.48028838008429    2.88923200464988    0.72230917462801
H           0.36290995666366    2.57915348001325    1.11291179412512
H          -0.30662373851849    2.89937463035971   -0.23064230921289
O           1.70181755481013    1.42961970548969    1.41824746605369
H           1.30881595787938    0.77190354609093    2.00804566257256
H           1.71488255555345    1.00025184902989    0.54589552909253
O           1.08903023550606   -2.22698018111986    0.71987474147152
H           0.89210346392556   -1.78018931630744    1.55911378593841
H          -0.28215767847043   -2.36744429788354    0.10194572860206
H           1.39215011374520   -1.50682472758466    0.12579575575639
O          -1.48478628403160    0.49796708314907    0.34066767159199
H          -0.64128486771026   -0.12482312047909    1.66371237805023
H          -1.29886486541190    1.44753353394611    0.57896752297938
H          -1.16953471523570    0.43293847110332   -0.56922485139314
N          -1.23510268858077   -2.21763804760802   -0.40810536338020
H          -1.00485601938442   -1.57052343313593   -1.23630692099379
H          -1.85693534220872   -1.67908758413507    0.19583503962138
H          -1.66506089963301   -3.08300164712455   -0.71569363545899
