    26
        -50.46183269  Gyration_radius:  2.40572845011 Dipole_moment: 6.574
 S          -0.52814250812627    1.69904788927991   -0.93549728975606
O          -1.81784568946551    1.75657618362936   -0.30412328363127
O           0.54175395541561    2.24668871511465   -0.09132874063347
O          -0.15364685074837    0.39648061677729   -1.45080650867652
O          -0.60702670388492    2.65489143643268   -2.20187312215008
H          -1.23931757400003    3.31817894878378   -1.94183359084352
O           0.50542727481566   -2.30412555268014    0.76990139805043
H           0.22375493800575   -2.91872917738286    1.44862111398911
O          -2.76014990492829   -0.38727196591866    1.15389198844215
H          -2.60565942865134   -1.02465500619021    0.42611786740960
H          -2.79802625065724    0.47189503848635    0.70804637944539
O          -1.71328400475297   -1.77240354364478   -0.93436788740797
H          -1.29092385377297   -0.96735479185692   -1.27929560851579
H          -0.99771997462382   -2.25639199426381   -0.50001790512473
O           1.99501029505544   -1.13039882058184   -1.18493415473534
H           2.37970438516652   -0.14700873680931   -0.10513010144042
H           1.58810027201177   -1.84882067344496   -0.67400867750912
H           1.23412848571065   -0.61173860839033   -1.52484862019441
O          -0.22710046057855    0.13711779580103    1.58137410076105
H           0.23207830619127   -1.40700514794750    1.07803615309358
H          -0.21522550780277    0.91022457312866    1.00370334480605
H          -1.19539711909210   -0.09122056053103    1.63739746085905
N           2.40407391846185    0.62736868735303    0.66335401893759
H           1.72785427791867    1.38623422650426    0.31041138576068
H           3.33291018253171    0.99956640661326    0.82791735481293
H           1.98466955993347    0.26285406177957    1.51929289424215
