    26
        -50.46183273  Gyration_radius:  2.40577459908 Dipole_moment: 6.576
 S           0.05349457184417    1.89867438477423   -0.65771076137096
O           1.18874405805004    1.66999540847782   -1.50873943073613
O          -1.21348921765572    1.49536295139932   -1.28149166707099
O           0.16387525884909    1.34243290423035    0.67680004366751
O          -0.04747133602584    3.47168313892838   -0.45977711947130
H           0.31347098092975    3.82281611390898   -1.26836071791198
O           0.17818519692363   -2.18151284328329    1.17095905452390
H           0.57114413421752   -3.04486324798234    1.03691900110191
O           2.27134384137024   -0.25603485747956    1.31524196778239
H           1.70663452780177   -1.00286256637603    1.55669616266534
H           1.65204786581064    0.47190400664896    1.13605914782793
O           2.61109290683513   -0.68770844679504   -1.34442308213085
H           2.41937683161435    0.21842454975067   -1.62823911799455
H           2.74009351050216   -0.60989365723013   -0.37640073616842
O          -1.40704632537918   -0.19725684097893    2.15315750532030
H          -0.84620479531535   -0.98979183478580    2.16615571159203
H          -0.81950584681560    0.51118338618708    1.81179959318323
H          -2.18888574121706   -0.37715878626378    0.87414760506267
O           0.01297534002261   -1.02146022878484   -1.23345096633798
H           0.12024426629797   -1.76214090621877    0.27914656455078
H          -0.18457076430962   -0.08439136488030   -1.35359923144635
H           0.99304710960363   -1.07202952231788   -1.40630721335375
N          -2.53410772325453   -0.41778539204116   -0.16048013022486
H          -2.10116886498024    0.44880862912628   -0.62848280762527
H          -3.54459435825528   -0.42504752355675   -0.24574018682138
H          -2.10872541752363   -1.22134747442532   -0.62387916860896
