    26
        -50.46633006  Gyration_radius:  2.51148322124 Dipole_moment: 2.616
 S          -0.56034537955170    1.82312229204565   -0.86467866549973
O           0.56086804958569    2.49091633677849   -1.48216041136188
O          -0.91652984481731    0.57756458966982   -1.56391757108342
O          -0.45402344913694    1.61166341280060    0.55488942290347
O          -1.81101010779136    2.78624812023750   -1.08425404961379
H          -1.60080300144822    3.19687473104068   -1.91672969668366
O           1.02853169642792   -1.05335506069159    1.99571288250042
H           1.58828494622007   -0.45690924268833    2.49477905532748
O           0.21425867632719   -2.98289913665039   -0.02274654068516
H           0.78598126052719   -2.35416740303430   -0.49374622719794
H           0.49116998555560   -2.91774699809592    0.89837002329112
O           2.91555344424470    1.59665655437134   -0.69418395392140
H           2.07743051517128    2.06264460801887   -0.91007380289110
H           3.51060264225038    1.77778384088738   -1.42410227300555
O           1.33475472420055   -0.55972432484624   -0.64865482612724
H           2.05219204580234    0.10904593096483   -0.65482778308369
H           1.13785979186898   -0.78530036902137    1.05504272629374
H           0.56943556427072   -0.11753449527936   -1.05586095777182
O          -1.52491030421170   -0.16884657593937    2.17448282111241
H          -1.90874828071347   -0.93195861387741    0.88820861309627
H          -0.66072869330464   -0.58453301056908    2.36968709084424
H          -1.26559896517087    0.66404867364020    1.72683024460628
N          -1.92294405610380   -1.36238726025057   -0.10066804934184
H          -2.83807587758027   -1.71173537681738   -0.35975893028817
H          -1.19215070057357   -2.12004035964821   -0.12906470927396
H          -1.61105468205135   -0.58943085301187   -0.75257447213613
