    26
        -50.46633010  Gyration_radius:  2.51137091239 Dipole_moment: 2.617
 S           1.56857765444004    0.74087090486032   -1.17234585623195
O           0.18667203892850    0.97868418227426   -1.62046150234950
O           2.16240994997680    1.92207839746826   -0.59231671483562
O           1.66020694987284   -0.45580415176138   -0.37814274878228
O           2.38805520508608    0.45758236654839   -2.50962540500951
H           2.63164371327491    1.33619444226656   -2.78268814932709
O          -0.55632615040372   -1.36566008670669    1.99441559455853
H           0.16291182469126   -1.42955214782299    2.62425911390959
O           1.59273192216050    2.26960933719989    1.96119518237473
H           1.65550405482464    3.21542884889335    2.10673015948940
H           1.95286376602911    2.11291002908252    1.06018545799653
O          -2.90505580338481   -0.32437209517290    0.63161491531182
H          -2.63517234380834   -0.96884798903426    1.29584081946269
H          -2.35347913295256    0.45516366658233    0.81074840350985
O           0.19087316079170   -2.63965632667509   -0.27551289850653
H          -0.12315372865120   -2.44544049992674    0.63079114335679
H          -0.84243941951673   -1.83978787562402   -1.09794804727711
H           0.92761774051830   -2.00245689362669   -0.38784122056467
O          -0.59956236093261    1.12787716726263    0.94066739792506
H          -0.48118360812589   -0.46447840726086    1.60584541398959
H           0.09567097289793    1.58661114974703    1.45858541074713
H          -0.29783824148537    1.16765747912008    0.01631226680114
N          -1.46735660338363   -1.06318839438145   -1.51001711350979
H          -2.16913098137834   -0.79396443413943   -0.77248383655189
H          -1.91712525661729   -1.34314244168975   -2.37372685341173
H          -0.82791530284034   -0.23431620751940   -1.66408095308126
