    26
        -50.45942958  Gyration_radius:  2.42427652934 Dipole_moment: 1.898
 S          -1.70168249680565    0.69899500370100   -0.43620077191135
O          -1.69121660020547    1.27914844436701   -1.77485291260000
O          -1.49089738925312   -0.74100461008965   -0.48602139296719
O          -0.79502317083115    1.35687366999765    0.47735847802230
O          -3.15616891453231    0.93248951087373    0.12790409849699
H          -3.69045203376411    0.67395686286531   -0.61534746886349
O           2.12723694341815   -1.26214558959540    0.00067944796532
H           2.89105269699069   -1.74784638842179    0.31242846164307
O           0.60310217058817    0.90631949261713   -2.70763356011565
H          -0.36447511279269    1.15714906029744   -2.45417195065661
H           0.59828080991698   -0.15026994661556   -2.63190887697121
O           0.45524970468461   -1.51712732251957   -2.11982810001240
H           1.17278976440696   -1.61155515737116   -1.46161173118940
H          -0.36192330092544   -1.41357167099247   -1.58504926552576
O           0.08403225425444   -1.73308376690417    1.48980138707414
H           1.37142609473326   -1.47875710351004    0.63573958541122
H           0.02913655862567   -1.05499975596838    2.20223758827266
H          -0.60314990561754   -1.48088419239025    0.84729398579213
O           1.66813470340356    1.35545770499290   -0.49038486672760
H           1.16581907040543    1.20325734162890   -1.86146762489352
H           0.82162035037699    1.48087101182830   -0.00879193506584
H           1.98779697122255    0.46438169034259   -0.23774138413607
N          -0.20739346076155    0.41211275913256    3.13240956023796
H           0.55761349059246    0.90939569944779    3.57073250357480
H          -0.99060141097314    0.42623533855049    3.77333505032869
H          -0.48030781714883    0.93460190372062    2.30109169481729
