    26
        -50.47150111  Gyration_radius:  2.42636603428 Dipole_moment: 3.422
 S          -1.47283107969535   -0.47437516557192    1.07121951315329
O          -0.52347494239402    0.50352967715021    1.58191204181553
O          -2.63521707551501    0.17127189250712    0.48137605190181
O          -0.85549373410850   -1.44019953169960    0.18448354499883
O          -1.99060920049943   -1.29768141369382    2.31550772581462
H          -2.42062679727064   -0.62884302431528    2.83764494210896
O           2.17683910383383    0.74778476024085   -0.98154981651610
H           3.09538171447796    0.87862702573261   -1.21833094844126
O           1.18641061012272   -2.90527687256815    1.06923175085635
H           0.35287425679052   -2.46630233052348    0.80660478265692
H           1.38254897588135   -3.54196272433153    0.38005042396581
O           0.06804211572178   -0.53479720891184   -2.16377346854997
H          -0.24368838051607   -1.04561495670710   -1.39121755447426
H           0.91425158578821   -0.13901109602015   -1.88133329617806
O           2.02726910842827   -0.33119465002467    1.36968446162247
H           1.94037155012673   -1.30156997447161    1.34659359896262
H           2.18100588116630    0.30155892615291   -0.08166095578165
H           1.13641613744103   -0.00780453122790    1.60232442443593
O           0.27910944874712    2.50245262671661   -0.04441002199725
H           0.01742028044616    1.94204370261904    0.71194297760534
H           1.07311818433598    2.06671857636877   -0.40646944434527
H          -0.87235612545898    2.05156726007710   -1.03119340069652
N          -1.56215162672343    1.41983941520209   -1.54737768299119
H          -0.97564568356773    0.65381542710221   -2.00256793078715
H          -2.13782541421801    1.92294864408182   -2.21280737139768
H          -2.14113890334602    0.95247554611632   -0.79588432773606
