    26
        -50.45942946  Gyration_radius:  2.42433548936 Dipole_moment: 1.894
 S          -0.49883627985353   -1.81408638880850   -0.19869940417548
O           0.44150437186623   -1.22830819486636   -1.14372187256227
O           0.19015254462707   -2.64564464186662    0.78239251597847
O          -1.36526743450392   -0.82447598680254    0.40079863873613
O          -1.42929035864650   -2.78905260541700   -1.01833415017481
H          -0.83810561892260   -3.51427796809341   -1.18954642167209
O           1.27201936316996    2.11355446466565    0.17505414805120
H           1.51066859811164    3.03644041975362    0.08651190806236
O           1.69466069013935   -1.12909074736994    2.08980699740791
H           1.11247068754404   -1.86665902907854    1.66506744056197
H           2.25885646012562   -0.77363584119735    1.26644289997797
O           2.63654796273524   -0.21989742729983   -0.03756643899109
H           1.96233784589581   -0.65079887476937   -0.60698194611252
H           2.36369630380114    0.71879564043229    0.00364454871617
O          -0.10199734985076    1.33459169590432   -1.85433402657684
H           0.07228580227173    0.38020745813833   -1.76799412850024
H          -1.06276937608962    1.43771654873638   -1.66292081488850
H           0.72408904410867    1.88017112337336   -0.64160134290258
O          -0.01098490992434    0.69952534463431    2.08833163870379
H           0.40009758552587    1.35617906895923    1.48854001140051
H          -0.66426977306983    0.21158499264871    1.54115805779679
H           1.00856177305615   -0.34247909580093    2.26561320379661
N          -2.70093408624348    1.26396608387174   -1.06323424888604
H          -3.13720275589427    1.95255014580259   -0.46308410361780
H          -2.43927379687066    0.46848187043572   -0.48248313328363
H          -3.39901727315636    0.94464193409554   -1.72285998682574
