    26
        -50.45942934  Gyration_radius:  2.42431163644 Dipole_moment: 1.892
 S          -1.86533912476669    0.09906871989731   -0.30119294921224
O          -1.30916931799412   -1.09357664167520    0.32217595023873
O          -2.49905001172127    0.96363144967755    0.68856934588170
O          -0.90034426150730    0.78946189233511   -1.12678923308265
O          -3.02006265473408   -0.37942628892152   -1.26333452616136
H          -3.69968699273960   -0.61327304460334   -0.64036108870389
O           2.23448201922910   -0.33386232749344    1.00562244116942
H           3.15885535123555   -0.56383290155578    1.10120988452031
O           0.03832353081580   -0.64079899798193    2.56678998914621
H           0.94348004857928   -0.62617289021993    2.19585935505738
H          -0.52314358809384   -0.99028199727180    1.84083131688092
O          -0.69317532340883    1.72617446087054    2.24758789283996
H          -0.38675763257840    0.76244896029386    2.56363398493597
H          -1.53089457226488    1.52415915714015    1.68143042517945
O           0.94397851133129    1.95479708620085    0.37138378236194
H           0.03729288058019    1.98372666301623    1.52606584179955
H           1.56020904294875    1.21487784921217    0.55229612052182
H           0.33089727066313    1.62708853609250   -0.32216282874492
O           1.08213046713508   -1.89622271983742   -0.68091314650963
H           1.85028521794170   -0.97131761550467    0.32183079124775
H           0.16720174541339   -1.76300699664256   -0.37461099516751
H           1.11241109148637   -1.49311600258461   -1.57925274070963
N           0.85285418440454   -0.50805298248517   -3.00585887229636
H           0.38909864725013   -0.94965626361204   -3.78960759736306
H           1.56296130415514    0.11030668281374   -3.37733956949879
H           0.16316217666421    0.06685620287460   -2.52386357432250
