    26
        -50.46116258  Gyration_radius:  2.44643832266 Dipole_moment: 5.280
 S           0.46804770631074    2.01151805876636   -0.47713836765546
O           0.49125235253950    2.53424912754717    0.88982119856795
O           1.46468261615828    0.96066466650770   -0.64084532659327
O          -0.84722733184027    1.60403208125473   -0.89764080910131
O           0.90746868252662    3.20502295668655   -1.41265620808170
H           1.76313238415729    3.44009189879381   -1.06757102731461
O           0.17260940036008   -2.45733622775981    0.28721588450843
H          -0.29171513126462   -3.28840215195374    0.18089946019959
O          -2.30200629925858   -1.00891949566416   -2.04894602583780
H          -2.52373870405352   -0.10673648321915   -2.29044547023042
H          -1.33897391137001   -1.07901287503518   -2.23163985609130
O           0.41516630169558   -1.05357698080682   -2.15244040065009
H           0.57422064909776   -1.73244435387240   -1.48172867956501
H           0.77196731527024   -0.23530720762437   -1.76720851551143
O           2.04328898330412   -0.75785469127019    1.30683380055922
H           2.03307072484101   -0.12805298835107    0.55322664477592
H           0.90206247025242   -0.10015716435701    2.10337985509089
H           1.63640575119899   -1.56801056621181    0.95917073669233
O          -1.65111923741103   -0.48854750426390    0.46116833578242
H          -2.19087506141327   -0.88224333779018   -0.25891038422395
H          -0.51778909715548   -1.75672687727983    0.36678893305469
H          -1.34267685995987    0.33438954717891    0.01267188486968
N           0.03467119112510    0.48408037467641    2.38025263007913
H          -0.80126443674729    0.03631071910132    1.97999580335930
H           0.18019143741598    1.41623926253380    1.86388393096400
H          -0.05085190579117    0.61673020241866    3.38186195234537
