    26
        -50.45064728  Gyration_radius:  2.41564399719 Dipole_moment: 1.306
 S          -1.24548221932365   -0.88521569105640    1.35724453937637
O          -1.52769721116148    0.28764102647410    0.54821099960586
O          -1.93991315638578   -2.07883231714266    0.92782944949616
O           0.18566707421002   -1.07892053945189    1.52858184694838
O          -1.82591462354295   -0.54020433823420    2.79978748349945
H          -1.98347851472451   -1.40630276377233    3.16161530212495
O           1.85442749397789    0.30085527721872   -1.75550677950562
H           2.14672994589891    0.12552226280518   -2.65138126218658
O          -1.21981523045020   -1.64245832701877   -1.53966585856711
H          -1.55256173622193   -1.85459543394423   -0.63961860640579
H          -1.92575685983887   -1.86998825084569   -2.14700802599811
O          -0.36936180081089    2.85712154004544    0.26475048169212
H           0.44845046945398    2.40322471089379    0.67560991618352
H          -1.11541229942211    2.46842673801532    0.73807941745494
O          -0.51673814879630    1.22469303178029   -1.58290421403461
H          -0.99508880853549    0.59041411105389   -0.96010371221566
H          -0.43677412530431    2.07100620219573   -0.90213708798629
H           0.43911672298406    0.85837165565557   -1.69403985615385
O           1.33289700577302   -1.98073079013331   -0.69121462935690
H           0.50491552119630   -2.14243050282491   -1.17178968453326
H           1.74123550072995   -0.60300892253328   -1.31564457527969
H           1.03606767914945   -1.75416063199314    0.21490695171397
N           1.56920581604871    1.37065278526360    1.14521281635691
H           2.13676788545578    1.61046743274939    1.94744052646848
H           2.19311602580077    1.16050434757646    0.37431008702396
H           1.06539757384091    0.50794739722808    1.36743448427489
