    26
        -50.45023529  Gyration_radius:  2.51045018309 Dipole_moment: 0.819
 S          -1.39898113347068    1.37589045253565   -0.57507646633445
O          -1.97613907072544    0.48479431513367    0.43597000269373
O          -0.49428083009305    2.33368299532034    0.02133608824793
O          -0.83894029943108    0.63373829472958   -1.68253416965925
O          -2.60671972619124    2.21417836318699   -1.15973908868427
H          -2.71597621068253    2.85339443996642   -0.46452081437068
O           1.77944097295460   -0.45282483900065    1.53741781406604
H           2.40293011163170   -0.38762248584041    2.26253142686524
O           1.71463886819394    0.76212125840348   -2.42934015620291
H           0.75833167607743    0.68590344142782   -2.22764299756874
H           1.78398724389244    1.39263660678396   -3.14760840487754
O          -1.37173795969600   -2.70578416190387    1.27493285151873
H          -0.78503634415640   -2.52318640540505    0.46050815179931
H          -2.27293797071875   -2.53892225105422    0.98931604184738
O           2.05890435002384    1.63961295173353    0.10486962900681
H           1.92513025637009    0.37928624776311    0.96964854785946
H           2.15778454738983    1.32936840752727   -0.81754416023868
H           1.16054749260226    2.03128607608481    0.13475142814870
O          -0.65025711014359   -0.52286005627927    2.26528414580480
H          -1.18952386775868    0.02184613425769    1.55041919675107
H          -0.94613647565977   -1.50173836465760    2.01202228711750
H           0.34740257748684   -0.46789832626503    1.99853102717357
N           0.12873283916856   -1.89343099133156   -0.69097047454750
H           0.34469371752800   -2.48793425664769   -1.48102014561510
H           1.01050482137783   -1.59927525629502   -0.28479875203013
H          -0.32636246597859   -1.05626261016987   -1.05674300876797
