    26
        -50.46281216  Gyration_radius:  2.46845487329 Dipole_moment: 1.922
 S           0.15978177334411   -2.06671722328852    0.51707938772536
O           0.74165506284788   -1.42408092411077   -0.65354282761239
O           0.33811311921257   -1.25482732356095    1.71467018209081
O          -1.21520338049541   -2.46803634177551    0.31156274960068
O           0.97963870768607   -3.40191440737228    0.74486225142420
H           1.89510924129981   -3.13578012608367    0.75179063102175
O          -0.04981953837354    2.11728594312292   -1.34378040431772
H           0.74153257805540    2.59422565275974   -1.08217196539151
O           2.41098778459507    0.10000278663073    0.81736332675347
H           2.13484436774462   -0.22126524958016   -0.05326550546214
H           1.78162344161765   -0.35391524434934    1.41055357160722
O           1.32839747157657    2.51135943755005    1.20269358512413
H           1.76145310049000    2.93507976255139    1.94401865638816
H           1.83018663131876    1.67762702943891    1.03269555655309
O          -0.60510158186164   -0.18942595250989   -2.60181002986066
H          -0.00461373375955   -0.75171202471377   -2.07130175346818
H          -1.77915546693065   -0.27014382980641   -1.62540129080766
H          -0.30296178168675    0.72381698712701   -2.42945816367650
O          -0.95447555793253    1.00519952647145    1.12673457334339
H          -0.30240268360838    1.68787171052230    1.37119568443347
H          -0.41988190633174    1.78423695545630   -0.51150909972615
H          -0.55117251620516    0.16522061493479    1.42914196876907
N          -2.37988960023664   -0.39436663115236   -0.72896480698036
H          -2.11089068908532    0.33753662798215   -0.05123104027815
H          -2.05067325355303   -1.31442664308204   -0.30961635653195
H          -3.37708158974300   -0.39285108316194   -0.91230885071101
