    26
        -50.45023520  Gyration_radius:  2.51061143141 Dipole_moment: 0.833
 S           0.82007999797182    1.76657497198888   -0.62285479959731
O           1.36141859931474    0.66698891368947   -1.42743344321758
O          -0.53243086535121    2.09246909804875   -1.01769571552063
O           0.98745343959466    1.52435198551164    0.79285501477816
O           1.69977409337736    3.03512611136276   -0.96933689908107
H           1.32347758781316    3.27289671024112   -1.80942619063452
O          -1.82384559000005   -1.52171054751561   -0.30396496933661
H          -2.61227330202487   -1.95171576894931   -0.63902878359465
O          -1.02289834248661    1.39689621382086    2.53577375782948
H          -1.11497529505841    2.25689906508936    2.94838883622385
H          -0.23408036458809    1.45765932632634    1.95694195264898
O           1.88035437126107   -2.58500782554022   -0.78060143366448
H           2.67556636556433   -2.09949837020247   -1.01190815899053
H           1.55629824778255   -2.18263489498252    0.09918273457955
O          -2.46712370326468    0.86906252971428    0.31184813133515
H          -1.86508439554473    1.39711864048376   -0.25385415331186
H          -2.10966308540210   -0.57990269724387   -0.04472250879564
H          -2.13756169961591    1.01675120731633    1.22096854801480
O           0.06338920639777   -1.36160024670272   -1.99253324629089
H           0.79495369446656   -2.00624762064930   -1.59375393893488
H          -0.73204241372988   -1.42026955161087   -1.33430603254495
H           0.52768182209949   -0.43578781011587   -1.83114341665627
N           0.87456536819107   -1.31723093704120    1.25815934621819
H           1.03865089033142   -0.32676009198927    1.07420738519223
H           1.17716843191548   -1.50137151685422    2.20620845705597
H          -0.12885306902296   -1.46305686417887    1.22802951630757
