    26
        -50.46281201  Gyration_radius:  2.46854463292 Dipole_moment: 1.920
 S          -0.15985907651980    1.95049172891296   -0.85694481124988
O           0.39377046487124    2.05630859568076    0.48740592518808
O           0.30877833424216    0.74817341752963   -1.53275273096812
O          -1.60068903003066    2.08259490240437   -0.88187866164500
O           0.41008165778155    3.17545366200993   -1.68256700762201
H           1.34387122142224    3.00510017384162   -1.77174011934543
O           0.11750981730523   -2.49941383194749    0.22778937281656
H           1.02468954416398   -2.67409662222382    0.48966357602426
O           2.49330277971917    0.53280580054992    0.03255452835777
H           2.00040709023552    0.23708611040561   -0.74654915527901
H           1.90770755884375    1.22676252399895    0.39239795954236
O           2.00248824416741   -1.17786674992418    2.02438766919178
H           2.28788256168502   -0.60308161629348    1.27348553839171
H           2.64143551248505   -1.03807313911722    2.72351819136877
O          -1.10607992586636   -1.48201387002791   -1.93522404174005
H          -2.06913531994697   -0.86388528949582   -0.92076621183970
H          -0.54013032986827   -0.68805720141615   -2.02122434473793
H          -0.60285887193548   -2.08059940251375   -1.34886689892625
O          -0.50869730444650   -0.13753943614032    1.70985743526034
H          -0.23157510358685    0.72667542855663    1.34082714924072
H          -0.15130879460001   -1.74256091949694    0.77121218067865
H           0.30183757283300   -0.49700403285553    2.11584738799352
N          -2.50345680135965   -0.23775731665432   -0.14673292587282
H          -2.29080080578834    0.75773033359755   -0.45435515255055
H          -1.97233497099321   -0.38345418262987    0.72747252591841
H          -3.49683606482238   -0.39377905672383   -0.01681736820012
