    26
        -50.45023528  Gyration_radius:  2.51065954815 Dipole_moment: 0.832
 S          -2.00809450808028   -0.35501070345100   -0.15248309268377
O          -1.41296128579472   -1.31330730238498    0.78396224013694
O          -2.14239327931496    0.95400898114594    0.44739212418955
O          -1.32595041455207   -0.36117151584356   -1.42745791745029
O          -3.47911717624713   -0.86875708419566   -0.42686544676903
H          -3.90786497373658   -0.57564772562235    0.36941885548101
O           1.68302123062705    1.22741151534890    1.18128622704613
H           2.13202439713262    1.79286188629472    1.81167167131536
O           1.65538219110235   -2.65217502752722    1.02649194623907
H           0.95539936218739   -3.29672946082864    0.89985052309938
H           1.67204907521843   -2.09050710419845    0.17491970498384
O          -0.14880818557332    1.77249586167937   -2.50323926803924
H          -0.76486767625301    2.17562648563627   -3.11663840975904
H          -0.58346179876942    0.95491963240130   -2.18134603236110
O           0.52136695336378   -0.77113677423522    2.22758806776958
H           0.98416655451327    0.06548226883173    1.83339949679632
H          -0.36678836392762   -0.91292053906219    1.68926014917551
H           1.08470052977376   -1.58704159167022    1.87145749823164
O          -0.13000824028218    2.62974098823669    0.06101900459672
H           0.98186775210336    1.81304003086642    0.73258347834102
H          -0.01754207699885    2.50545158275559   -0.90273414592914
H          -0.94360629973552    2.12731174482557    0.27773808149344
N           1.44585926546286   -1.01222029409668   -0.98397615296970
H           1.87996675187883   -1.20226294380963   -1.87823769871592
H           1.79144634598048   -0.11311801254039   -0.66582336986668
H           0.44421386991002   -0.90634486855388   -1.14923756435344
