    26
        -50.45023529  Gyration_radius:  2.51064435094 Dipole_moment: 0.832
 S           0.09208494658908    1.86401201065813   -0.83578159319270
O          -0.26830001728311    2.32142333370325    0.48796763139456
O           1.42698235844483    1.25791463641186   -0.84663743962063
O          -0.88928809567329    1.00401221789645   -1.45883653554524
O           0.19328604378249    3.15916807029196   -1.73881900103590
H           0.62344067398221    3.75088383284408   -1.13164734649658
O           0.15439036071639   -1.23328600550320    2.04686039454454
H           0.29038135563198   -1.47104601086253    2.96540712946193
O          -3.06138397671561    0.07686874574122   -0.22679338823993
H          -2.29905564568982    0.40223530934770   -0.75021700319143
H          -3.79582528811797    0.65321320083821   -0.44293615473353
O           2.47976422718623   -1.92604147908275   -0.98452008460948
H           1.46477304655120   -1.97252839554818   -1.07702256970711
H           2.78322411210741   -1.38095479571402   -1.71410862554338
O           2.21873367609257   -0.30192908592571    0.90254545546841
H           1.38842599775736   -0.66227027902685    1.40277669097095
H           2.46041889511180   -1.05045186785239    0.20171873544485
H           1.88429930754563    0.45270215361725    0.25648100817921
O          -1.61143627037866    0.60725537667581    1.99285763171890
H          -0.56779661519895   -0.51610002659283    2.04924183405030
H          -1.13186977392984    1.34104665094877    1.55364801381649
H          -2.28035126333383    0.32723867537888    1.33630840391490
N          -0.11605337200134   -1.73775786389821   -1.02456020403876
H          -0.43365553571448   -1.86337781527132   -0.06937382389419
H          -0.68748474015293   -2.33129253318130   -1.61231054732975
H          -0.31770439731892   -0.77093807589283   -1.28224859178438
