    26
        -50.47126124  Gyration_radius:  2.4291297192 Dipole_moment: 4.308
 S          -1.53139894873316    0.85439355306143    0.76151329969325
O          -1.03431860060292    1.67838006059090    1.85370747108818
O          -1.03796801881668    1.33213286676066   -0.52589669130997
O          -1.28385026979949   -0.55682773317199    0.95321607837296
O          -3.09891145946779    1.04412374539687    0.74457683688386
H          -3.18636456063336    1.98386095854257    0.86333937351963
O           1.66858783818968   -1.61548624763866   -0.91912275461630
H           2.17074051488575   -2.24604822574117   -1.43593950039102
O          -1.61776363035888    0.13409839900772   -2.82829230796657
H          -1.50098274061612    0.64186511682111   -1.99937834065094
H          -1.05227433872417    0.55271699056211   -3.47952254657550
O           1.61404008696872    1.11790460336067   -0.76031901508513
H           0.64919104563935    1.27883218427081   -0.80984318909345
H           1.73035826383463    0.16727871247402   -0.94795836077307
O          -0.86591162567721   -1.98340188584053   -1.29561458601724
H          -1.20389043396463   -1.39089820038815   -1.99323772433655
H           0.69983415681012   -1.79831407826064   -1.11730724068017
H          -1.16951420288331   -1.58298315442949   -0.45979324944483
O           1.10183362033052   -1.54832332337439    1.76687024008967
H           1.46911457746509   -0.02361391785196    1.98555319332987
H           0.14567945583568   -1.41061517956417    1.63690520659371
H           1.44144906909839   -1.73731887222828    0.87173450134827
N           1.49950449924404    1.03555278274534    1.85119568494391
H           2.15136995287938    1.49357363445892    2.47783991111163
H           0.51040103334696    1.38464609737882    1.98409454448538
H           1.73104473572258    1.19447111303697    0.82167918549265
