    26
        -50.45091248  Gyration_radius:  2.45450747352 Dipole_moment: 4.320
 S           1.61438832558249   -0.74245069351316   -0.55316458039487
O           1.25365540816756   -1.46222411479958   -1.74621502272679
O           1.50354923832809    0.69491342562990   -0.62623768350817
O           0.91362557738068   -1.24012798795021    0.64529035594008
O           3.15289456560687   -1.05984665492483   -0.30347977659623
H           3.27694091537235   -1.84728654789049   -0.82274324561360
O          -1.92972804696404    1.16171753828120   -0.04549286124652
H          -2.86778893423147    1.05920263929442    0.12248799371864
O           0.03171765376792    3.02129164887670   -0.82438532768721
H           0.58112922717408    2.28847112603139   -1.14110148994131
H          -0.84102553878292    2.63164748126161   -0.68369915268195
O           1.41191768136978    2.51141888016869    1.36493392721119
H           0.89225001420026    2.99386661158058    0.67279634757955
H           2.01944730545120    1.97303412024633    0.83542470224182
O          -0.21571179377338    0.65559928446449    1.79037057551393
H           0.28111414883927   -0.16860023888527    1.36805850417873
H           0.47467286093064    1.46592038730981    1.72134262060427
H          -0.95504608151872    0.87903060001948    1.12175746133682
O          -1.33508826218120   -0.82617010541858   -1.53894708646366
H          -0.40235495524665   -0.98950332712128   -1.77012646753128
H          -1.58008489949342   -1.58416052133328   -0.96191921936936
H          -1.68104564826429    0.43064778121800   -0.70206610296272
N          -1.52174356966869   -2.79380265674861    0.33748682867989
H          -1.40499343070127   -3.72438979168360   -0.04344665235528
H          -2.07414913403920   -2.87514462115419    1.18191432189772
H          -0.59854262763190   -2.45305426306390    0.60116104020997
