    26
        -50.45090499  Gyration_radius:  2.46098160035 Dipole_moment: 4.276
 S           0.30667175052500    1.85383092371561   -0.00616670201326
O           1.12623644549997    1.12986283203363   -0.94979436138250
O          -0.96733949160422    2.30356912696336   -0.50545677576358
O           0.18495311641054    1.08350535031300    1.24508118323655
O           1.10550450494612    3.17081448573824    0.38065482425169
H           0.40550777429955    3.81451518165866    0.38241525389597
O          -0.55090658648284   -2.04627350172694   -0.75195143585033
H          -1.08375433827822   -2.82139509224105   -0.56805490288989
O           1.37998305577089   -1.10486947070571   -2.56512611623694
H           0.65856707978870   -1.62611840810165   -2.18851362141413
H           1.16443525611860   -0.18566878020123   -2.34669559297197
O           3.06833582735580   -0.68814135201840   -0.58047405425291
H           2.86271559555335    0.25761810807912   -0.65210683306296
H           2.67960146429273   -1.05390961275376   -1.41429168925350
O           1.15575089666035   -1.18808549292052    0.95340525065995
H           2.03977019327424   -1.03453289919091    0.37206472253268
H           0.77726944311964   -0.22681467462509    1.13891554697371
H           0.48282754384490   -1.60994802010180    0.31072177240550
O          -2.16564475858337   -0.07978279585678   -0.59146828177930
H          -2.43212260747446   -0.10844131629620    0.35511058491199
H          -1.78473726381974    0.81134968734920   -0.70935253308138
H          -1.19424701606953   -1.25896915244409   -0.76629475243622
N          -2.38260579878518    0.04685695466753    2.12169637107920
H          -1.47731365994166    0.50956924743534    2.05630692330338
H          -2.30847129942135   -0.67842275747461    2.82401835175878
H          -3.05098713697621    0.72988143892547    2.45535685729120
