    26
        -50.46061524  Gyration_radius:  2.5438657751 Dipole_moment: 5.980
 S           0.20263407342348   -0.40530046564741   -0.21004080943151
O          -0.74212985962173   -0.05482278305926    0.87461607560358
O           0.09361549940421    0.72376414132209   -1.26763225485996
O           1.57042889904969   -0.32622875676728    0.28796859958937
O          -0.13234656166839   -1.66874517121219   -0.81503314269041
O          -2.87446549356455   -1.11850141362704   -0.34510413593838
H          -2.50292565021094   -1.96775568188749   -0.60132153798968
H          -2.20697966323029   -0.72149376435706    0.24294079337758
O           1.73281129975563    2.28544682606211    0.31608372601505
H           1.85091357411012    1.31276043433028    0.20288622766437
H           1.25198508796033    2.56216170171502   -0.46931622614466
O          -0.85609677634679   -1.91072822227728   -3.36395625622177
H          -0.55915753827939   -1.95058787514031   -2.43095116151254
H          -0.06166545072386   -1.93837974781875   -3.89863664019283
O           0.28916901648164    1.66625912288761    2.32346526410334
H           0.83541681140867    2.13765332729409    1.60487805212838
H          -0.27077252426754    0.97893536571700    1.75906259750179
H           1.02223795332386    0.99188507923657    2.78341127821246
O          -2.08308812654431    0.30657648232373   -2.45319023444813
H          -1.80393074469599   -0.43267028212713   -3.03027129311190
H          -2.60224714187217   -0.12095405664498   -1.73302744799931
H          -0.80361071217143    0.61223470678482   -1.76896841272255
N           1.99625444892747   -0.04133384576068    3.01976896581554
H           2.03094405367924   -0.38554160551781    2.05298433815885
H           1.70091723273061   -0.79529912124256    3.62571552772589
H           2.92208829292937    0.26066561540461    3.29366810736322
