    26
        -50.47126129  Gyration_radius:  2.42918256693 Dipole_moment: 4.310
 S          -0.64763251699443    1.74988437825390   -0.41495876709812
O           0.04950823645714    1.00283601917339   -1.45660664163068
O          -2.09112620270199    1.62493010772000   -0.55443788284693
O          -0.17177979324707    1.41727003561833    0.90889833757118
O          -0.31278429844393    3.27500788411203   -0.65027893025312
H          -0.85583941587759    3.48293010834073   -1.40311550761153
O           1.11939683788616   -1.99793071460090    0.99455062681740
H           1.72802658187883   -2.67444795336942    1.29251134867394
O          -0.35562509109968   -1.63141792975940   -1.28272495685355
H           0.24090925781592   -1.88530208102161   -0.55313475986068
H          -0.13859017700425   -0.69820988025812   -1.48590735582275
O           2.70146915373327    0.86957674914364   -1.60754847902632
H           1.73316122345048    1.01345919784594   -1.62285560275908
H           2.88335723019458    0.20634571951190   -2.27551818457653
O           2.28503790899216    0.31332582470438    1.02209946359926
H           2.65763542432593    0.52517034511579    0.14559744312780
H           1.47573843702531    0.85369981546038    1.08609703549112
H           1.63046844371487   -1.13216456170357    1.01418280747915
O          -0.98365171370175   -0.77782133177646    2.27270298307973
H          -0.24019933200594   -1.34677716567212    1.99765673461613
H          -0.69110063300067    0.12467297849183    2.04917565722431
H          -2.01927209591696   -0.92408640106575    1.08330189064853
N          -2.44216096849450   -0.88062877077650    0.10358417905926
H          -2.46302536374426    0.14017846114279   -0.17078977609727
H          -3.36033094803935   -1.30686325452222    0.05169063324692
H          -1.73159017521036   -1.34363761011112   -0.54417231619700
