    26
        -50.45091312  Gyration_radius:  2.45408597394 Dipole_moment: 4.354
 S           1.64848177484910    0.12469302465355    0.85765285484892
O           1.60876859538021    0.52109104163993   -0.52969346733848
O           1.44377355543024    1.17632171203755    1.81854425695236
O           0.75435643444476   -1.02748370121441    1.07766064232709
O           3.11704675294235   -0.42625579424611    1.12199796671603
H           3.27966824254692   -0.13208568746011    2.01199542150485
O          -1.85109204721455    0.59194302154582   -1.13925103671709
H          -2.80712724861220    0.55566554913336   -1.08104179749594
O           0.27795405659944    1.43392780891586   -2.77259012729136
H           0.83858624340341    1.50194860127344   -1.98519388041229
H          -0.62077554462543    1.34971414106880   -2.42828323583412
O           1.29663004202196   -0.99925659051432   -2.73054017143535
H           1.94684997187237   -0.69137511653296   -2.08058242825418
H           0.90559401030859   -0.15128691076501   -3.06149137092350
O          -0.45522908833094   -1.55418485296059   -1.02946810242871
H          -1.07599975854368   -0.74707363224445   -1.10879313471789
H           0.27197214813305   -1.42168811345950   -1.79954775405440
H           0.06456546549114   -1.39924361460126   -0.12935778344983
O          -1.11698411379674    1.51755107373196    1.12831053802234
H          -1.53480535767064    1.03116546771224   -0.28245555442762
H          -1.47896678560427    0.83859134427748    1.74101341463685
H          -0.16792337010911    1.55940004103677    1.34637994036893
N          -1.67190122949197   -0.68265309479776    2.63851525934726
H          -2.34827624856274   -1.42764465422532    2.52750890517910
H          -1.54026223110589   -0.53337298037941    3.63102294231601
H          -0.78490429973497   -1.00840806365444    2.25768770257065
