    26
        -50.46133350  Gyration_radius:  2.45315304102 Dipole_moment: 4.933
 S           1.61301249022139   -0.47354112953037    1.28971873441221
O           1.95625303567269   -0.82623706950570   -0.07267587959226
O           0.82640499300751    0.73829531071402    1.38060639284315
O           0.98169267984426   -1.59270218234053    1.98985488206613
O           2.97102345630865   -0.18492476772637    2.04640111180511
H           3.47369609305990   -0.97867540824223    1.89196905643213
O          -1.89144809261751    1.22435368596622   -1.00169065077076
H          -2.29331208566528    1.39462823461024   -1.85437605782339
O           0.79122589450309    2.12883517467149   -0.95457160835157
H          -0.17037185416942    2.22763759249623   -0.93870042113058
H           1.00175555264281    1.66226791680653   -0.12675462010555
O           0.99398879010903    0.42434704095739   -3.04332494962519
H           0.99070016046045    1.14062516656354   -2.36738596912124
H           1.85711368158001    0.01457007945605   -2.95897814091875
O          -1.82048695959192    0.90815351036915    1.70756585732906
H          -2.04796593766781    1.27784613163522    0.83912258470771
H          -1.76705544287004   -0.61274154347820    1.43234519660966
H          -0.85068830062851    1.02383171932936    1.77864084860668
O          -0.36873767033391   -0.99714383282622   -1.27864856620524
H          -0.06770475502152   -0.66698938169994   -2.15547025677763
H           0.48178078015382   -0.98861483926643   -0.78032383178553
H          -1.34230120024409    0.41401064336837   -1.10873036421700
N          -1.44913124669214   -1.60264070177306    1.14168566633881
H          -0.46678764627696   -1.70745402017063    1.56679399714387
H          -1.32338230886550   -1.61647844974921    0.11907981005143
H          -2.07927411690611   -2.33125886065024    1.45784716804867
