    26
        -50.46415458  Gyration_radius:  2.52017680678 Dipole_moment: 6.946
 S           0.52642815139013   -0.12361047296888    0.21625379266807
O          -0.50546969724407   -1.18859600846458    0.65621554173347
O           1.33806074010145   -0.79873123736619   -0.81315141557898
O          -0.19879429522635    0.98769394830895   -0.40064288313664
O           1.30734420660321    0.29048518367852    1.35627164766049
O           0.82933323796924   -0.61168907360379    3.80866446133506
H           1.12221903112362   -0.24730712131850    2.94651414521086
H           1.25294089515307   -1.46680273645293    3.89386415886104
O          -0.77665331612374   -1.97193586027346   -2.00130798376796
H           0.04038349802329   -1.70149690175069   -1.54127762904115
H          -1.34459949978261   -2.31250414742309   -1.30592974466615
O          -0.74313486246007    2.17570745786281    1.91800427268866
H          -0.60638713500641    1.88199936517090    0.99736342110472
H           0.13138697449487    2.14667245436963    2.31696013432127
O          -1.25151073893705    0.54018812412503   -2.76500263006478
H          -1.12113282003021    0.86046990281405   -1.84452931198350
H           0.19578800837354    0.62001678799315   -3.07486298919595
H          -1.33818697278275   -0.43333507882534   -2.66179220858505
O          -1.59609512523152   -0.22313348240729    2.70747812228266
H          -1.50458399074120    0.73957422905144    2.51919480535740
H          -1.00910824866105   -0.82984879634897    1.48353874190889
H          -0.88619058470251   -0.41847279257555    3.35243692625102
N           1.29767211530424    0.55489841743508   -2.99974468731712
H           1.70569892930022    1.47898647012995   -2.90278958501151
H           1.70565319528311    0.05282810606091   -3.78189506981107
H           1.42893829380241   -0.00205674721785   -2.07983402321252
