    26
        -50.46400282  Gyration_radius:  2.43625199867 Dipole_moment: 6.318
 S           1.02357348755208    0.41999108048361   -1.96168556545043
O           0.10572094408438    1.30952554647618   -2.63610131172066
O           1.80080804815087    1.06301337976667   -0.92889900328246
O           0.37702984341817   -0.80568963962646   -1.48657466650091
O           2.04984831245013   -0.08881002733301   -3.06632470454242
H           2.35319353912364    0.73575182851017   -3.43060725103120
O          -0.48809890953021    1.35957434809685    2.00947228643479
H          -0.73383899340228    2.14226558276921    2.50399525301831
O           1.16639383784024   -1.92039920532143    0.77092766300301
H          -0.14119055426050   -1.62919193851875    1.30652447896085
H           1.01848917379451   -1.63535987139218   -0.15870818481595
O          -2.13250225219748   -0.90865535302150   -0.89838901910362
H          -2.59141563176085   -1.42781889004667   -1.55981601913128
H          -1.18465117625513   -0.85662468830280   -1.20497715076113
O          -1.27609971029165    1.74371545257495   -0.44917648610697
H          -0.67588528773848    1.57160397036829    1.05383571663233
H          -0.69820368711187    1.74712855538065   -1.24093307256311
H          -1.90481371843632    1.02936738182696   -0.61507041709936
O           2.13291672684967    0.36253090627279    1.60071376975346
H           2.18531071655318    0.68578697850510    0.67709419256835
H           1.34543822064852    0.79926320474831    1.95444303696770
H           1.70067376990059   -1.17815978954970    1.16542198172865
N          -1.14590428181000   -1.23898502744674    1.60653134232400
H          -1.58833928897670   -1.81338193830908    2.31393746333660
H          -1.70707687984616   -1.19860653068752    0.73295972419084
H          -0.99137626876681   -0.26783532624440    1.94140594315744
