    26
        -50.46133353  Gyration_radius:  2.45283133912 Dipole_moment: 4.944
 S          -0.12989711650349   -2.08221125182406   -0.36617594551795
O          -1.04431163222010   -1.34826271045362    0.48272607498790
O           0.18512326254602   -1.38530331979238   -1.59627300615174
O           1.08302973884041   -2.48206811852945    0.34811247903816
O          -0.86866090332826   -3.42017207964272   -0.77094494032378
H          -0.25704039471937   -3.82504131852644   -1.37806897354339
O          -0.51656985486250    2.23867769812963    0.89865979972618
H          -0.50445993425087    3.16023434140921    0.63720950669487
O          -2.20422134746272    0.74134361278758   -0.81182756490299
H          -1.87943303868106   -0.11745984286169   -0.48915179938875
H          -2.00187073574839    1.36042899336560   -0.09726458053864
O          -0.51607951326600    1.70978926964471   -2.68943497315540
H          -0.39598777791543    0.99559682723936   -3.31844622736019
H          -1.23814385790687    1.39997929922375   -2.09588819865806
O           1.14195992721294    0.92084898419854   -0.78677643309944
H           0.79181693449030    1.45748313292327   -1.53360991982716
H           0.09133734876851    1.76649056738906    0.28436249475168
H           0.83968488328302    0.02130854068310   -1.05358758163708
O          -0.40958933923397    0.12453593713057    2.62058076570045
H           1.03481140871060   -0.09287989495033    2.11349032177544
H          -0.63549732027521    0.99904234938707    2.26450391017231
H          -0.82311131878909   -0.50946128909300    1.99929702802952
N           1.89543822851773   -0.33091725422643    1.50656242794643
H           1.66525757889053   -1.28804713060052    1.07362430314122
H           2.76058923758473   -0.35150672013833    2.03477713106552
H           1.93582555629144    0.33757138713361    0.72354391106606
