    26
        -50.46133370  Gyration_radius:  2.45372084715 Dipole_moment: 4.919
 S          -2.07450275440345   -0.26367564570197   -0.34941460607566
O          -1.03137292763609   -0.79423570320272   -1.20145191489617
O          -1.79080151757882   -0.42492757344943    1.06187772937728
O          -2.39741278836357    1.12576985866824   -0.67543136029489
O          -3.37669160620962   -1.10641603674569   -0.65646001510975
H          -4.00339214630190   -0.76804375151475   -0.02459771548715
O           2.44191882191325   -0.13586060503926   -0.30659123458759
H           3.24752248073600   -0.21454883786208    0.20563566132765
O           0.73415027826075   -2.34451668909059    0.16513242278421
H           1.49987199947162   -1.89102178729868   -0.21264538373788
H          -0.03272846614604   -1.92579520817111   -0.26350185251592
O           0.95766955300186   -1.47091750702433    2.71360212165898
H           0.09529123537094   -1.60572779621406    3.11124071780265
H           0.90278257856613   -1.92125616540180    1.83936794193747
O           0.52468570377262    0.76971636908975    1.37735627839833
H           1.75027593252890    0.19667537790759    0.31044592588142
H          -0.37266780760435    0.38609977147262    1.23791282212329
H           0.87191823769939    0.16929614765558    2.07538583083469
O           0.89227363760344    0.59579354995887   -2.42969165014267
H           1.65346680943048    0.25715575251717   -1.93119724379360
H           0.16274246902352   -0.02144541970201   -2.21563801568926
H           0.37774755693373    1.74700355278546   -1.53411191337340
N          -0.11718312546262    2.31805089802319   -0.76317475559489
H          -1.12407684171014    1.94043133340226   -0.75059184773606
H          -0.08860790760559    3.31784693068148   -0.92908092272117
H           0.29712059463377    2.06454918424692    0.14562297956015
