    26
        -50.46400437  Gyration_radius:  2.43684369342 Dipole_moment: 6.310
 S          -1.01240578621044   -1.30676657954661    1.53245362484934
O          -1.74993444879703   -1.45208169807828    0.29965217543964
O           0.41464541246235   -1.07025877474821    1.30114260269196
O          -1.59458140916843   -0.35102023588727    2.44658855656071
O          -1.05544553720787   -2.71819245120859    2.26590077890071
H          -1.98110863402988   -2.78924208076128    2.47262230681996
O          -0.81488034357582    1.53189141471207   -1.76523704303971
H          -1.38124597279489    2.19229922921629   -2.16589446587655
O           1.48679023344741    1.26417224415879    1.53936903142513
H           2.03901191910765    1.28126150559324    2.32193116624774
H           1.05918771528537    0.36306565581076    1.52922382608740
O           1.45446416492795   -1.53642476352854   -1.07837673506733
H           1.72754401973437   -0.12318581908838   -1.17458782261024
H           1.12252809893876   -1.56612100403605   -0.15298336510176
O          -0.89331695159009   -1.26751286980303   -2.19714760078825
H           0.62836761602887   -1.60603714905812   -1.63026269774176
H          -1.33138243265719   -1.45962847590200   -1.34191670816106
H          -0.96733694898958   -0.30692321664165   -2.28523093509922
O          -1.21021767764835    1.66174765472477    0.81049265040895
H          -0.34461055930206    1.88886806912499    1.17435701393162
H          -1.06893944566548    1.50378664452218   -0.80160825234990
H          -1.52595106124779    0.92669244371243    1.37721281653861
N           1.76861092023789    0.99452702379336   -1.14535281482158
H           0.85996726500097    1.32781199390650   -1.52289965284290
H           2.55135781413983    1.36668084639309   -1.66969779519287
H           1.81888202957236    1.25059038261914   -0.13975065120869
