    26
        -50.45198908  Gyration_radius:  2.6047016058 Dipole_moment: 2.759
 S          -0.43847567145639    0.55826686010244   -0.03902408895733
O           0.14252962863553    1.38630502947703   -1.19120070689407
O           0.62199694158475   -0.20350766631520    0.58784698382250
O          -0.96097358877286    1.59988665163451    0.91227416243952
O          -1.50703943720282   -0.27342070879896   -0.54518992495199
O          -3.38362573951720   -0.96836657992920    1.20697997712528
H          -2.71747704668516   -0.83723360482770    0.50042496237913
H          -4.21824244039833   -0.65527579934111    0.85361044601126
O           1.83198702464238   -1.41114962104907   -1.55186133417800
H           2.49696220399724   -0.71094285881113   -1.72528254886108
H           1.46541876006497   -1.18476538405889   -0.68206332066177
O           0.19824110333205   -0.96165153220549    3.10400196228539
H           0.42710382838440   -0.80402233638613    2.16488835961393
H           0.95799210993831   -0.68340984921195    3.61847210550682
O          -1.96976442735851    0.50194153559055    2.85852157542637
H          -1.43752752022953    1.15942286868276    1.83462078798523
H          -2.62177362353733   -0.09270336866808    2.40424919721443
H          -1.22345562592273   -0.08652058211335    3.14232481232910
O          -0.13674697694799   -0.39845531749405   -2.91066264625555
H           0.03866624147364    0.75871418380204   -2.01883908999689
H           0.63609175155725   -0.93536713519630   -2.56707111826673
H          -0.92040292383570   -0.76065660965258   -2.47813483501010
N           3.14469775690942    0.98090338429211   -1.86067933782299
H           2.31247171723849    1.46919972348566   -1.54609159034397
H           3.34568903760330    1.28989832796762   -2.80348304784756
H           3.91565692649912    1.26291036902073   -1.26863172208779
