    26
        -50.46400449  Gyration_radius:  2.43661983367 Dipole_moment: 6.304
 S           1.17183846496140    1.02986581374479   -1.62666025613341
O           2.08600105721894    0.14580643877528   -0.94284054963328
O          -0.19672859798445    0.50773611835576   -1.64511841212583
O           1.23914950956151    2.39929510146403   -1.17045173747490
O           1.60089287316426    1.04088813107040   -3.15904853771204
H           2.45706986621870    1.45179346669368   -3.10677241236991
O           0.47330001959828   -0.57613196046977    2.35873594456005
H           0.82390384791600   -0.45463712438470    3.24177091208089
O          -0.64686263008713   -2.02468042729213   -1.05837688830015
H          -0.46497940755817   -1.15406893546023   -1.47836128142674
H          -1.38227320235415   -1.56862884345411    0.09559571522096
O          -2.04646209218868    1.41043580571810   -0.08938545470529
H          -2.67781753885439    1.91309900629853   -0.60551142255851
H          -1.33176489642286    1.13561092939399   -0.72854459456431
O           1.59357129105401   -2.14654267591092    0.28356038965516
H           1.94096284950836   -1.37429348393694   -0.20957195332890
H           1.33674834423309   -1.77805637961211    1.14047323959824
H           0.22236104773565   -2.27370406221608   -0.64082316141679
O           0.41512997471683    1.78096978065567    1.24085705586409
H          -0.51848301893507    1.92843578113537    1.04119849328303
H           0.57679644186604    0.30363857428117    1.90143126248861
H           0.88224706665432    2.03376574339904    0.41677425413763
N          -1.81779916525088   -1.06576968530600    0.99536823015214
H          -1.03947444360663   -0.96509419699852    1.67603619104551
H          -2.59523992191962   -1.58237407369854    1.38884568053986
H          -2.10208774924576   -0.11735886224589    0.68081929312393
