    26
        -50.45363131  Gyration_radius:  2.49769045421 Dipole_moment: 2.033
 S          -1.31387636673318    0.67853267678681    1.07920502918456
O           0.01602688854523    1.26947884536413    1.03253740682967
O          -2.06086847383217    1.00849939642286   -0.13435916915127
O          -1.29341273809106   -0.73265145719439    1.37788141108332
O          -2.08567878288593    1.38647997469927    2.25882005647673
H          -2.18738882104824    2.26503525234661    1.90985709739875
O          -0.17020510522405   -1.90105155341622   -0.72164492318721
H          -0.68636117890691   -1.72554223944504    0.09223741150646
O           0.19718608184503    1.25783510763152   -3.23574647745302
H           0.73445309501848    1.57105986633815   -2.45663256942636
H          -0.19820706102637    2.03950525337299   -3.62481635895352
O           1.47740294784850    2.01636111774361   -1.08725337642505
H           2.19202610228465    1.39209789480542   -0.92443186178774
H           0.88237765055849    1.91732498129180   -0.31815917348413
O           1.84208552533927   -0.59261581540808    0.33517471103531
H           1.25208287113623    0.11227193742097    0.66317464284834
H           1.91672238608342   -1.19244716708758    1.10506734161606
H           0.71733387787176   -1.50226366644041   -0.51305060105218
O          -1.45597062662696   -0.33828052697173   -2.15122538515473
H          -1.80819040775692    0.23000092685125   -1.36213269294230
H          -0.80024209951975    0.26522417829626   -2.66497039802866
H          -0.87603914800440   -1.09563651771077   -1.65046507837338
N           1.11648192772438   -1.99883091227710    2.56160859283094
H           1.02570730964795   -3.00745708952251    2.56693252773791
H           0.19474329006391   -1.61242856684114    2.36442213613851
H           1.37181087529221   -1.71050187704355    3.49796972126020
