    26
        -50.45363112  Gyration_radius:  2.49772232788 Dipole_moment: 2.033
 S           0.20667781203491    1.72481426654424   -0.57816997879816
O           1.19245528032393    1.08262287857836    0.27956792792821
O           0.29633476639575    1.19899479693947   -1.94017652878246
O          -1.12758643365405    1.68453662597205   -0.03087765980794
O           0.61462472550093    3.24491462632748   -0.68274606079960
H           1.41328800044959    3.18482226091662   -1.19506193195982
O          -1.84551288528661   -0.86820059640864   -0.06234277065716
H          -1.85560881045358    0.11123412036109   -0.04234928202160
O           2.39948064981893   -1.29652051676018    0.01532093493817
H           2.10398094473272   -0.36482544171326    0.01727536252021
H           2.03483710138049   -1.66963365135174    0.82445700608546
O           1.29925077763813   -2.51387375522059   -2.01892204591245
H           1.75762202428131   -2.10436583145879   -1.23410224803206
H           1.91888475801080   -2.46975586535939   -2.74884754081808
O           0.02278439786389   -0.83455487919007    1.77752480748855
H          -1.18685723724557   -1.09906587783980    0.64701697813023
H           0.49727645664671   -0.11112475829806    1.32583060644339
H          -0.53196815187849   -0.35985547649683    2.42947669288705
O          -0.75606700460837   -1.04263269166412   -2.28063670137089
H          -0.34185682593372   -0.09559053643457   -2.24800492186563
H           0.03242530029122   -1.70004806676414   -2.21728226270571
H          -1.29528294012341   -1.09190462424231   -1.34898666160556
N          -1.57044406847666    1.10887387577382    2.84729908641139
H          -2.55496999617210    0.96798308812367    3.03821657857325
H          -1.49750135904110    1.51931631876904    1.91778127276671
H          -1.22626728204873    1.79383970045597    3.50873931077158
