    26
        -50.46903295  Gyration_radius:  2.43084696697 Dipole_moment: 4.599
 S           0.29424793541154   -1.97244260917551   -0.54694645601360
O           0.17323858582977   -0.96483309803274   -1.60755844018670
O           1.36997915992745   -1.64870496004786    0.37447571542260
O          -0.97391468635390   -2.23187008127999    0.08405285303372
O           0.76638637832348   -3.30444211882982   -1.26499975995960
H           1.63701579908539   -3.41862844697079   -0.89955361763982
O          -0.78738459353630    1.05910293419513    1.58190204926628
H          -0.76363959739827    0.27569208373295    2.16961551884150
O          -1.13433665209201    2.77448933681793   -0.83062000085703
H          -1.08302159885655    2.85796587492240    0.12825692257548
H          -1.73158206820703    2.02604038308623   -0.98709964191933
O          -0.44547498056972   -1.41690070839591    2.56931329332819
H           0.50497691629720   -1.55739945662604    2.55335375558807
H          -0.76477316375516   -1.81697886878298    1.73756235425684
O          -2.05245158331576    0.17624931658056   -0.73442725330077
H          -1.29460157254890   -0.28612625035094   -1.14918144544342
H          -2.60954800998146   -0.53472478663104   -0.40649316037463
H          -1.29011795733769    0.75284754669292    0.80601289533187
O           1.82072035505840    0.89911484105289    1.01358054974863
H           1.81202414827309   -0.07059671095246    0.87077045571147
H           1.58028229573306    1.36990175000097   -0.41734588495414
H           0.93171157227552    1.09162608922589    1.39234994024637
N           1.14116142064916    1.48365294510155   -1.40192968211756
H           0.81216491868448    0.51482808922749   -1.64271027740536
H           1.79256553340726    1.84024016987878   -2.09092338298571
H           0.29437145499461    2.10189672555909   -1.30145731019061
