    26
        -50.45363115  Gyration_radius:  2.49744017226 Dipole_moment: 2.024
 S          -0.27892347030568    1.61427519523776   -0.81761726345043
O           1.09369395752748    1.53023360787190   -1.31584794817380
O          -1.03182717137859    0.42893736620711   -1.20264954484179
O          -0.36336042164788    1.90234352804323    0.59335863243165
O          -0.93283445527212    2.83358090679809   -1.57510761077384
H          -0.70712900607997    2.63190473924249   -2.47642616880080
O           0.92861114915869   -0.06511098183727    1.81561563403019
H           0.50590541784463    0.79271280972889    1.60341794700171
O          -0.13680765452468   -2.02112588427498   -1.82132509990602
H          -0.44723735762374   -1.09539301870393   -1.77623384789650
H          -0.57953054184986   -2.46255704024563   -1.08911963284087
O           2.43694434142011   -2.06748035649223   -1.36956844819092
H           2.87805595100517   -2.03051014961688   -2.21971584200088
H           1.45958824062067   -2.11463825778857   -1.56018593696831
O           2.61951559621534    0.05912459602127    0.00874506352902
H           1.98390865798032   -0.07069573997887    0.86865377842233
H           2.62080312877920   -0.82789044663987   -0.51244214909139
H           2.07968608904077    0.72700360714902   -0.56765216457389
O          -1.19641766730762   -1.28319078693314    0.87811631203704
H           0.22863913522528   -0.72660468948305    1.56565547759513
H          -1.80354051265395   -0.86290311818227    1.52062603572254
H          -1.24152916289490   -0.68348524559631    0.10941288835031
N          -2.48623160345520    0.68037263908487    2.27149289449659
H          -3.44085515959099    0.95480577228942    2.07530628894837
H          -1.87573395858600    1.29891998069354    1.73996156773575
H          -2.31339354139810    0.85737096734505    3.25352915714948
