    26
        -50.45760688  Gyration_radius:  2.49458935516 Dipole_moment: 2.731
 S          -1.35513362092643    0.16894692609982   -0.39944059048774
O          -1.52160601239814   -0.38167125671913    0.93167711171078
O          -0.51268504610005    1.37704523298094   -0.35866697160658
O          -0.80863256795524   -0.80470157997968   -1.33687497421667
O          -2.73841215627790    0.59482383571520   -0.95188109913355
H          -3.03978336223437    1.23431585099917   -0.25129529882966
O           2.74256793057322    0.44236998784999    1.17630926512516
H           2.73544529270312    1.09366717706222    1.87938063856246
O           0.66858811067457   -2.84717840788894   -0.50984516778326
H           0.18069038718132   -3.66872481719084   -0.43978416912689
H           0.02029687338242   -2.16742581610082   -0.79753875003399
O           1.59444821922416   -0.82828073001307   -2.43565177283261
H           1.89875844929887   -1.61582064876814   -1.96901201537392
H           0.62423570591528   -0.81530950433401   -2.28808357860025
O           1.85921888172385    1.27123742738211   -1.03706125956534
H           1.88083310801731    0.45881180737478   -1.67239508254276
H           0.83018884602649    1.38099947423882   -0.78912092017462
H           2.30334817712669    0.97048941875218   -0.14767231416440
O           0.86892119251756   -1.25396863275915    1.70550032434627
H          -0.03164362986027   -0.90037887467940    1.54789854428415
H           0.96444359447439   -1.97380895704598    1.05688753409957
H           2.05147038784632   -0.24544431258220    1.42449326382297
N          -2.92174942810003    2.06107574884105    1.18787226213532
H          -3.60879272692233    2.46496567939499    1.81173503322481
H          -2.18318602268406    2.73534723383689    1.03183789594144
H          -2.50183058317241    1.24861772755107    1.63073210112289
