    26
        -50.46183273  Gyration_radius:  2.40568220432 Dipole_moment: 6.568
 S           0.90573553998199    1.74242006763302   -0.42911838931191
O           0.87829650557847    0.94906540911766    0.78429388305945
O           1.67720198582048    1.18332410360995   -1.50504403694126
O          -0.45690639963151    2.10698515484740   -0.83777658294663
O           1.61488123628724    3.10781411806182   -0.03327550373065
H           2.01239450418627    3.39750337584535   -0.84900186366445
O          -0.78752016096933   -2.19453392164083    0.84993176569403
H          -0.88795128356865   -3.09615950375112    0.54214068605236
O           1.76239352039564   -1.54527310406542   -1.89779497608374
H           2.02159062795724   -1.72855055596495   -0.97094500622982
H           2.01046735820176   -0.61837782962957   -2.03088426490280
O           1.98283653097063   -1.53721839906017    0.80885866249857
H           1.15516477093076   -1.96579419064263    1.06625071329622
H           1.78617282980871   -0.58539572196116    0.83981608546070
O          -0.63208208250973   -0.64466586946006   -1.32441343241001
H           0.16967615898475   -1.11066688761766   -1.68915718046436
H          -0.73239006464114   -1.63047922952805    0.04163173425463
H          -0.35563785027268    0.27958572149563   -1.29396627406408
O          -1.06702785679897    0.06189315000768    2.34904730753954
H          -0.25008254830123    0.46653372892165    1.98524069293950
H          -1.97531931640408    0.52259467992484    1.23401948346147
H          -0.97147843411261   -0.88561538196511    2.15964978633054
N          -2.41030318700022    0.85158036976610    0.28874395143455
H          -1.66348114827573    1.48965352145788   -0.15016947832376
H          -3.29594477004613    1.33264199823926    0.40108368853574
H          -2.49068646657300    0.05113518636093   -0.33916146148494
