    26
        -50.46183269  Gyration_radius:  2.40574581178 Dipole_moment: 6.561
 S          -1.67462917287538   -0.32586385922162   -1.06290722111359
O          -0.97712712077000   -0.98018547233427   -2.13565520494865
O          -1.28661005842819   -0.74669077836367    0.26944588667976
O          -1.63860537914129    1.13822925454588   -1.17216822435821
O          -3.20381923335448   -0.72992015036861   -1.21205573499692
H          -3.30932147561387   -0.86726491905841   -2.14869931791302
O           1.95018693583010    0.01538379021444    1.53485859600497
H           2.90462823575040   -0.05574490154701    1.49322860748593
O           0.82522083270387   -2.42922286598934    0.60258108326310
H           1.30617611550651   -1.80824847431637    1.16647671212896
H          -0.03772777313736   -2.00674275620169    0.45273917722305
O           1.67840534895260   -1.67720788453295   -1.86349263351993
H           0.80371574400947   -1.64929584286879   -2.27877377194462
H           1.52549787023155   -2.15589700331869   -1.02249924207699
O           1.11530241984320    0.70023325310678   -0.91253945763079
H           1.65164105191967    0.26908195732208    0.62880936148804
H           1.50927820630574   -0.10267643868661   -1.35198183387320
H           0.18902298505622    0.66721237920986   -1.18167415185972
O          -0.55487997938770    0.55079247572947    2.46048366547874
H           0.37022617095839    0.25738587539997    2.48886989420672
H          -0.48304719835419    1.75191483264472    1.54766698336273
H          -0.97952589868845   -0.04535294033320    1.80644704244273
N          -0.42772550566708    2.43738271400095    0.70034822512336
H          -1.03618154744069    1.98253452008631   -0.06152305828571
H           0.52303349386810    2.43493816499099    0.32954903519972
H          -0.74313505807559    3.37522506988890    0.92246558243322
