    26
        -50.44929201  Gyration_radius:  2.51723330585 Dipole_moment: 2.087
 S          -1.20066408684699    1.65045584097995    1.15825967747227
O          -2.11818627243974    2.00077574554063    0.09611730499672
O          -1.59540670293195    0.47488733814348    1.90608609581810
O           0.18183486162735    1.55618019236746    0.69629245932980
O          -1.20361479187061    2.86270502470725    2.18420527588915
H          -2.11410042343511    2.89042891201541    2.45900588905051
O           0.62721360175965   -2.37485009884310    0.67929081903124
H           0.54351666728082   -3.02532298684714    1.37836597407637
O           2.89562354919302    0.61092818020488   -0.59319317549003
H           2.51318268099689    1.49337033512731   -0.58862270534834
H           2.31057968469048    0.06908670557538   -1.21986839940026
O          -1.56196556771175    0.33822958589397   -1.82099034235628
H          -2.25820533142589    0.45082606734760   -2.47116111650955
H          -1.72522094235024    1.03204748962133   -1.13499750999302
O           1.72850075394688   -0.20791851553562    1.45570399236950
H           2.38414486553346    0.06125958531274    0.67065576882952
H           0.99596763306615    0.52716525860342    1.29288380841447
H           1.30449722552761   -1.10342148493775    1.17510812979316
O          -1.73710466392247   -1.50975981046938    0.18787009305324
H          -0.31790425901300   -2.08416301294522    0.46027931264234
H          -1.81062193924147   -0.83813947191419    0.90140902763065
H          -1.73400640371906   -0.99269071338027   -0.63792111068277
N           1.17884193345150   -0.81885957681046   -1.95815463963303
H           0.29664078846965   -0.31200669929415   -1.93944534033316
H           1.05175125244104   -1.66868682245971   -1.42012998183251
H           1.36470590691639   -1.08252706801420   -2.91704930678770
