    26
        -50.45538155  Gyration_radius:  2.56578395325 Dipole_moment: 4.104
 S           0.20689255907285   -0.92734639749930    0.45103130764982
O           0.37840006846701   -0.24677078265371    1.73236465497622
O           1.44768388484552   -1.24125353600178   -0.21398034217220
O          -0.57419871800126   -2.22691522353139    0.74424015141602
O          -0.66600692111196   -0.10224770017974   -0.42045213495117
O           2.39016980179143    1.13346620672233    0.70199992412735
H           1.79883879640093    0.71321213710381    1.35200429725492
H           2.49459676433626    0.43623122925552    0.04065189903384
O           0.97527794181290    3.25701294570742    0.14121344729110
H           1.19142588389957    3.87777339202592    0.84004260254386
H           1.58701256701173    2.47902453865333    0.26393351746566
O          -1.32707777549160    1.40825079128428    2.75258438144445
H          -2.07639702420339    0.91322345816342    3.08880765741581
H          -0.63729441158139    0.73660045764172    2.51049648669512
O           0.38506517236740   -3.48412217364588   -1.24713406849555
H          -0.12205032228089   -3.02559306006408   -1.96214949059819
H           1.16033895297862   -2.92183304965409   -1.09774373561395
H          -0.29289908100967   -2.86583755538679    0.01177129808083
O          -1.30069231858385    2.15310217087911    0.32123688684143
H          -1.41545218650375    1.98636621151826    1.32473085330807
H          -0.41763791053912    2.68010574429874    0.20677756474468
H          -1.06709984201088    1.17102717375589   -0.05892186365873
N          -0.91892640882435   -1.71904963490680   -2.80249265097908
H          -0.87487464176399   -1.05493357777565   -2.03005403471613
H          -1.89158511692340   -1.82415280190464   -3.06230630946550
H          -0.43350970421791   -1.30534097385306   -3.58865229965906
