    26
        -50.44930419  Gyration_radius:  2.55004672783 Dipole_moment: 3.576
 S           0.07139288255745    1.66804899351861   -0.18987810834319
O          -0.16158938950577    0.84381490728706   -1.37767308028383
O          -0.90470514692793    1.39890277646814    0.84587315136527
O           1.44792982953404    1.49342204607086    0.29502417096389
O          -0.04018355272819    3.15454661373897   -0.62217976882904
H          -0.99174950412109    3.20718847089995   -0.90418777638592
O           1.85837091563847   -1.52449684354364    2.23159355854539
H           2.18731308921765   -0.95532540839104    2.93008906669884
O           0.78147057988618   -1.48374987339310   -1.63544820669101
H           0.94998644154310   -1.60022235437939   -2.57224773868728
H           0.34844294627456   -0.57108486641061   -1.54893409205340
O          -1.09353817928133   -2.76568308720786   -0.03545215759062
H          -0.69682636473157   -3.59051853183918    0.25076408875994
H          -0.48539724031770   -2.37074353806697   -0.68172488234481
O           2.59552680389813   -0.65339844412765    0.00529082035803
H           2.36382945232614   -1.07955981858636    0.94520213988173
H           1.99851417632275   -1.10393366175286   -0.66935554097761
H           2.16797251421850    0.33882186609604    0.09488376968708
O          -0.62968435892617   -0.97968525277323    1.99005113634567
H          -0.76617891917625   -0.07150772664253    1.64511719513061
H          -0.99624371373913   -1.58268099116106    1.31648635139725
H           0.85922402668001   -1.34457583291554    2.18155040782339
N          -2.53290788007379    2.58800368913683   -1.13666613430337
H          -2.39595401035245    1.90405900414393   -1.87059573583095
H          -3.45613877702571    2.99177347917159   -1.23424729296110
H          -2.47887663130524    2.08858435467034   -0.25333531178713
