    26
        -50.46272431  Gyration_radius:  2.48119365726 Dipole_moment: 6.116
 S          -0.02738312610918   -2.32378577492044    0.26141439740713
O          -1.37227108815313   -2.70707254989017   -0.08367618498928
O           0.64004057771082   -1.55497668890747   -0.80741095488358
O           0.12880513177941   -1.65322640512198    1.52856349344327
O           0.79157801305167   -3.68855840557844    0.35378404940560
H           0.20236076943329   -4.28208865233289   -0.10005362769007
O          -1.22615759865502    1.78775028484225    0.94788256549676
H          -1.97861026490141    2.28878478825646    1.26549384257483
O          -0.67482023871317    0.15582863995271   -2.46159510378914
H          -0.23356694053579    0.97093509229334   -2.18852527704986
H          -0.17610691783212   -0.56980781017776   -2.04683309007211
O           0.42459423694284    2.41919892505404   -1.06391391897321
H           0.30861230813211    3.32701923057656   -1.34584273518969
H          -0.21643126462019    2.26073590289614   -0.33145089678906
O          -2.26046467352892   -0.20713553050132   -0.30243877223477
H          -1.92332619960431   -0.06045597889797   -1.21074963570334
H          -2.05706451181736   -1.14271191701639   -0.11493177177120
H          -1.61800505926249    0.95541148699817    0.53357996946338
O           0.84728037431820    0.71920809283925    2.38546029955063
H           1.65029702026131    0.61788921396508    1.07908522890236
H           0.06284926326508    1.21044717667412    2.08073297553972
H           0.56961976288984   -0.21970576916395    2.34011170859262
N           1.99065595706142    0.47253392143408    0.06311825352008
H           2.99630893146294    0.36140781973694    0.00704409692811
H           1.66206712862565    1.27229132800534   -0.49795042613250
H           1.48913839879871   -0.40991642101589   -0.29089847555701
