    26
        -50.44930432  Gyration_radius:  2.54974031369 Dipole_moment: 3.574
 S           1.59423202624171    0.05533451443641   -0.52928912750567
O           0.76098080260686    0.44845420927398   -1.64687714413446
O           1.24138224032759    0.78630899579635    0.68959317612701
O           1.54507257907407   -1.39437588578796   -0.29188380302212
O           3.07582302758562    0.38080991612876   -0.85811894881928
H           3.02841373545360    1.35736098060550   -1.03617992454143
O          -1.81973841415142   -2.69673530642402   -0.40980558364481
H          -1.49629152696767   -3.29541058573637   -1.08574128108828
O          -0.56747128859611    0.01600465190853    2.27330955845652
H          -0.28832765107974    0.28884989027967    3.14918169627559
H           0.13424846992106    0.38076058940038    1.63891873028705
O          -2.71511418930888    0.93463742482068    0.77001792751117
H          -3.48334777027098    0.43287754754167    1.04895381993035
H          -1.98966422024503    0.69453686298101    1.36966944222839
O          -1.75895393302481   -0.35922494165837   -1.44754289404507
H          -0.83774460566342   -0.06389582214782   -1.61069850041964
H          -1.84796391087744   -1.78001407519153   -0.84816398915816
H          -2.12911164089705    0.26042577574465   -0.79117154757258
O          -0.04965353581991   -2.32793157351739    1.31904928345046
H          -0.33027074034386   -1.49921526461307    1.81789382101277
H          -0.83320876678515   -2.55540206849524    0.64576782524222
H           0.72515838810587   -1.96794694959060    0.65149041921440
N           2.23033964341653    2.82310182618631   -1.20397908054203
H           2.43655884750177    3.70086608919187   -1.66438207965098
H           1.91155447110111    3.01489136949587   -0.26221614364027
H           1.46309796267805    2.36493183959796   -1.68779564201378
