    26
        -50.45606829  Gyration_radius:  2.57863725246 Dipole_moment: 2.269
 S           0.73681461782598    0.35666258673510    0.38878674635808
O           0.53824459351403   -0.34372880949129   -0.98267431100232
O          -0.49510756689708    0.22869194364948    1.13855674183419
O           1.88338477520790   -0.21458019783177    1.04009003191208
O           0.99158903196772    1.78410136298994    0.01849260791605
O          -1.31580801388811    0.80328040462615   -2.60725907948870
H          -0.70278880084083    0.26843529465656   -2.07095463106353
H          -0.95558950115990    0.82349935312748   -3.49574180294871
O           3.29017275845661   -2.28675293739797    0.12677969106390
H           4.00225579533010   -1.96655761297647   -0.42850189058439
H           2.89828066469016   -1.49807849030161    0.55391720512212
O           0.05079608920632   -2.24805291944612    1.94450349619119
H          -0.28916075386647   -1.35130932056887    1.76299466289110
H           0.90019281613862   -2.11493016018286    2.37389570890768
O          -1.02955624861452    2.81597296329394   -0.89404830952718
H          -1.72375655909008    2.64288386777343   -0.17437931071955
H           0.06558775506278    2.30481639937336   -0.39751054000790
H          -1.25032847815167    2.19589499714198   -1.62795930283312
O           0.75558634929504   -2.77243756866662   -0.54781113825479
H           1.72739439060824   -2.84310230621453   -0.42104895837894
H           0.37950458542995   -2.80328072869716    0.36644362580440
H           0.60398717754974   -1.40346630426255   -0.85081327631089
N          -2.66701370432516    2.05704616311575    0.99547878683242
H          -2.82089577336103    2.62032770889441    1.82142505501505
H          -2.02427617983773    1.30342801414208    1.24035904247613
H          -3.54950983024203    1.64123630653320    0.72697915879191
