    26
        -50.44930407  Gyration_radius:  2.54990947535 Dipole_moment: 3.574
 S           1.47296604891998    0.28233213819772    0.75682743369601
O           1.26285150682844   -1.15071492062271    0.75936113239684
O           1.25199734267138    0.85712133479795   -0.57173290455705
O           0.63623180330598    0.96127925852808    1.75648866300843
O           2.94159172929838    0.58335555692716    1.15870758910307
H           3.44330826413073    0.07367005230472    0.46853226629666
O          -2.77253196548157   -0.22289433350405    1.73822630023508
H          -2.64312721827307   -0.41480898046648    2.66904307173929
O          -1.95337636411804   -0.95187247297935   -2.03005570351057
H          -2.91115633184097   -0.90320319452118   -2.03599129574217
H          -1.62635480041060   -0.04426815273239   -1.91700391794210
O          -1.02222811848107    1.58594246890777   -1.39001934396690
H          -0.86909767903563    2.33252656787767   -1.97196688833209
H          -0.10147960685853    1.26345212051246   -1.11399891536442
O          -1.55002789645625    1.87125595494382    1.12258231501080
H          -2.14661708876556    1.04230595662180    1.39734098235357
H          -0.56341264379962    1.55621552969592    1.44357612370530
H          -1.48352335926271    1.85717534684792    0.11770366618672
O          -1.27693868054829   -1.86192491199165    0.46422812220567
H          -2.22149617985883   -0.91508662942769    1.23804737327685
H          -1.42879556941735   -1.71587016577838   -0.48832514602647
H          -0.32639355925862   -1.67555262684844    0.61952712633657
N           3.57444767507690   -0.94643773712517   -0.85599753676368
H           4.30591477695167   -1.53808660645561   -1.22993941871358
H           3.18234454137116   -0.39562632078183   -1.60965211166401
H           2.82490337320831   -1.53028524288156   -0.49550899308208
