    26
        -50.45558056  Gyration_radius:  2.4442004823 Dipole_moment: 2.107
 S          -1.27019396438920    0.55366568479190    0.23953497266784
O          -0.40228230871521   -0.63684391285070    0.20598924746731
O          -0.51625468505454    1.75228171206420    0.53003850194318
O          -2.01499133524716    0.63370287397923   -1.01790073891639
O          -2.30343280213153    0.31458997327176    1.36534998195947
H          -1.72349629761595    0.40586166897571    2.19073422401203
O           1.60278155373783    0.39546270628265   -2.55854567041113
H           1.83157432723615    1.14916752829558   -3.10576376375002
O          -0.92729417484657   -2.52021753975454   -1.49933698627800
H          -0.68980803955234   -1.91390685199576   -0.75115408724936
H          -1.83446512049393   -2.79188324160517   -1.34619999972976
O           1.75580549996157   -0.79265967025891    1.69383136796258
H           0.92824711491525   -0.77760088325366    1.16139889438395
H           2.18664692700641   -1.62403951319865    1.48841112139629
O           1.98581414596744    1.29096865705825   -0.16449605861530
H           1.08673636061960    1.59983089298638    0.07771540858407
H           2.19560529989446    0.61914612604665    0.50422498322365
H           1.77695012973075    0.68579827239465   -1.61004850818500
O          -0.77157715250328   -0.39328611910276   -2.88889391864134
H          -1.34144658084264    0.12570750715237   -2.15404807878712
H           0.21490822151677   -0.06895089966306   -2.77816864611406
H          -0.79344746028631   -1.34867937505304   -2.52442720732539
N          -0.47732315199140    0.73201817357093    3.14834169014331
H           0.27580971436325    0.05424774018695    3.09418092911977
H          -0.57822692694024    1.02459617844487    4.11188875716349
H          -0.19663927434451    1.53102235114852    2.58734357390175
