    26
        -50.46272410  Gyration_radius:  2.48099486595 Dipole_moment: 6.124
 S           0.27578475076124    2.14147809794510    0.89787026056381
O          -0.04356158526106    0.90178083742959    1.63281239844906
O           1.69194684091005    2.38949967055273    0.81156640147193
O          -0.44605486051782    2.18013136912422   -0.34996030383734
O          -0.30563996984685    3.31508344344260    1.80706668466721
H           0.49137091805557    3.63878568846686    2.21369513314280
O           0.49109155750491   -0.99533771141233   -2.08984799778068
H           0.98312809394837   -1.22112039976278   -2.88042268651185
O          -0.34724330278769   -2.64974530396073   -0.15779825047431
H          -0.01604250966635   -2.10681217176145   -0.91144449108986
H          -0.27253152759263   -3.56771375759909   -0.42011369967914
O           1.52759714437788   -1.31662066418292    1.57266871278839
H           0.89873648256574   -1.91434381309275    1.14734703188577
H           1.02378099546552   -0.51505258822653    1.79825046765667
O           2.20805658351870    0.17665238207889   -0.57575992295482
H           1.12989862919711   -0.45531753411865   -1.52581059534913
H           2.09226664719464    1.06574013339779   -0.19125849945230
H           2.22386924890409   -0.42462861107537    0.19779714542010
O          -1.78674160489043    0.51007028068302   -1.86365341787966
H          -2.00819418425156   -0.10380024201608   -0.47246748187285
H          -1.37413129856348    1.31721891499441   -1.49096471920518
H          -1.02935808391702   -0.01647227865873   -2.17774763651765
N          -1.91132064031743   -0.50560026990146    0.52676635657571
H          -1.51873302247649   -1.45547051524125    0.44907185409308
H          -2.79145440358354   -0.50217389575980    1.02895223270450
H          -1.18652089873142    0.11376893865475    1.02338503318518
