    26
        -50.45558064  Gyration_radius:  2.44477535759 Dipole_moment: 2.107
 S          -1.02834463037222   -0.66894022435955    0.68866862896968
O          -1.87012964511956   -0.06415549608282   -0.31894366267244
O           0.39561969750523   -0.60251383538715    0.31502127420203
O          -1.19980275256151   -0.07238047300410    2.01415314066050
O          -1.38149047942097   -2.16923877512783    0.81597322542094
H          -1.36525248774292   -2.46063869490882   -0.15403522537873
O           0.63200417661780    2.96666067024785    0.29991385708064
H           0.10895655468800    3.77057672494502    0.30314613267058
O           1.14701189123150   -0.65373012005969   -2.20043511558357
H           0.89334374054172   -0.67888950385751   -1.24982996978215
H           2.10142173948876   -0.56563450435789   -2.21661481269578
O           2.16714101406286   -0.21925773854494    2.17113935965361
H           1.59289870936879   -0.45919160333957    1.39867844854217
H           2.04979041665428   -0.91675617422087    2.81914884056087
O           0.48998050352105    1.67271255736006    2.46217612970848
H          -0.31012309599797    0.98378154079412    2.32241126815927
H           1.29951582592743    1.04735734285294    2.45668170223846
H           0.55539777951231    2.22989484900241    1.58163149737417
O          -0.37857676253966    1.63748053359094   -1.67304467333881
H          -1.04318698674088    1.08112841001003   -1.21343506582175
H           0.29992416544650    2.43005708101140   -0.48487920537228
H           0.21485200606918    0.99806965519289   -2.09885083900218
N          -1.32562666112730   -2.41580940061355   -1.75762906057451
H          -1.77659343480587   -3.10602849931997   -2.34449885254308
H          -0.40968168849974   -2.21256223384552   -2.14405456906046
H          -1.85904961564158   -1.55199204818822   -1.79249246347334
