    26
        -50.45064756  Gyration_radius:  2.4196557343 Dipole_moment: 1.250
 S          -1.93387715752358    0.44710320362310    0.49307253658442
O          -2.97816417478764   -0.08425511531726   -0.35403782723612
O          -1.24569948779004   -0.56827735036204    1.27325009898899
O          -0.99082540408705    1.31019051988740   -0.19879127033114
O          -2.66904819826916    1.39658418565954    1.53967870607383
H          -3.51549747090372    0.97094627450883    1.63093461589638
O           2.07848922001358   -1.35753133548302   -0.64652137379263
H           2.51916418048305   -1.87071348881366   -1.32568964217355
O          -1.19795855622051   -0.81549603141683   -2.11822125718948
H          -1.92501289103012   -0.54909932566527   -1.51421457024052
H          -1.51064162436094   -0.64090102632127   -3.00746505828642
O           1.58897570146261    2.41056506572915    0.43181375610963
H           1.60103022451026    1.64814454118830    1.11019611428287
H           0.68205301194179    2.73732337325374    0.45844885904541
O           1.15414979828034    0.87515591312836   -1.45885157788124
H           1.49772255086638    1.59798243787106   -0.73159755585420
H           1.54444085751211   -0.03215055494532   -1.16550001669346
H           0.17579798910414    0.86746803498347   -1.19348303759831
O          -0.19471573002695   -2.48663154824032   -0.23505389623991
H          -0.61161747497870   -1.91839160258535    0.44573548265941
H          -0.61391360487696   -2.19998047673129   -1.06220645060554
H           1.22788772026301   -1.85817918360696   -0.42503754998523
N           1.38971798285525    0.27857632683407    1.90491934877587
H           1.55253287334333    0.27710806519776    2.90331486530273
H           1.96207344202443   -0.45140250908952    1.49585923173208
H           0.41293624218186    0.01586159669751    1.74944744862610
