    26
        -50.45606812  Gyration_radius:  2.57880039684 Dipole_moment: 2.256
 S           0.39693395230518   -0.80098787441490    0.15164785522519
O           1.73635490753963   -1.28890437497028   -0.03008788959990
O          -0.07028033902488   -0.11687021729060   -1.16138162306958
O          -0.56470164976037   -1.93620359128312    0.31549869986674
O           0.25638729398626    0.15602229639247    1.22882597915065
O           2.54521944046176    1.38976852717410    0.66187544956765
H           3.16197968860428    0.65416792345659    0.70726407318005
H           1.70478737753083    1.04313421687059    1.01713601637614
O          -2.70705563524901    0.54195455025725   -1.25068253105889
H          -3.04101060695211    0.30154695524150   -2.11686398214064
H          -1.73978710538363    0.42947632167535   -1.28448822521162
O           3.23450001601685   -0.88051500061805   -2.19745603676601
H           2.78675250292010   -1.14527256981697   -1.36836583480929
H           3.09312476599490   -1.59497500190102   -2.82005322252055
O          -2.80608620859897   -1.10501708529764    0.83494989707563
H          -1.61855296683858   -1.58827135434337    0.57421695341536
H          -2.65186540756896   -0.50912845962276    1.64146316028107
H          -2.96598716258869   -0.49121201372864    0.08046985407609
O           1.79876830269451    1.34423406367357   -1.87276922130686
H           2.43174149511473    0.67143629054390   -2.20751572311648
H           0.69634753322518    0.54508417801862   -1.50673115136297
H           2.14834412870227    1.59806235084344   -0.98304143716421
N          -2.11391062439528    0.52974947123199    2.75302902616024
H          -1.16409115786214    0.55314018473983    2.38117488700027
H          -2.06720611820347    0.22699971358795    3.71702410225485
H          -2.48070643265629    1.47258048957076    2.73486089450611
