    26
        -50.45591211  Gyration_radius:  2.49162561262 Dipole_moment: 3.164
 S          -0.72173895222218    0.10464820556937   -0.98560361043871
O          -0.23334208399213    0.93370886684940    0.14066188752133
O          -0.17417085453480    0.57236669176886   -2.23436655623621
O          -0.47199355481204   -1.30286056984755   -0.70760526283031
O          -2.26786342501783    0.26234158176296   -1.00256449906843
H          -2.39773377872467    1.21190100904462   -1.29113647818822
O           2.09364212569225   -1.01875164573969    2.35076681601546
H           2.31941167301543   -1.81908151011593    2.82678427342226
O          -1.50615461994597   -2.23279259007807    1.47484124916786
H          -1.16899116606951   -3.12464892279511    1.58080159735283
H          -1.26309670244489   -1.95229735797246    0.55664111852062
O           2.28734779697431    0.92249943514016   -1.21071027586994
H           1.51009379464324    0.81454665701243   -1.78783209325555
H           1.95717427564435    1.40895474767467   -0.44958792193068
O           2.16198254103556   -1.55154768553012   -0.16793393889128
H           1.22823489822279   -1.62735523262530   -0.43703516632742
H           2.46903313451356   -0.73051312373011   -0.60714786450435
H           2.20446446082949   -1.22591910326140    1.36866398383820
O          -0.28199163581482   -0.16094886333918    2.34255187020607
H          -0.29165963666780    0.38368182347489    1.40517001136705
H          -0.83436248945217   -0.99308104460845    2.14742856605222
H           0.70252323744101   -0.47491890734256    2.43857180780751
N          -1.98341113440219    2.70938137243694   -1.83874210758293
H          -1.17425857296103    2.31074343760643   -2.30820877451774
H          -1.65197733997057    3.31837080564158   -1.10217819100086
H          -2.51116197101772    3.26157188301421   -2.50223044063694
