    26
        -50.46154483  Gyration_radius:  2.43328270944 Dipole_moment: 1.390
 S          -0.94574859802927    1.38789055705328   -1.32702178959113
O          -2.16210788116694    0.60857831835416   -1.23083463879498
O          -0.72071430942751    2.19514719355737   -0.13072367153389
O           0.22317262514143    0.59653416701573   -1.66426289096834
O          -1.14899710499475    2.39629071298051   -2.52576421602687
H          -2.04064266924423    2.70633804239070   -2.40485663843341
O          -0.41124463564211   -0.82257728842836    1.81136697635119
H          -1.28436049192803   -0.36640519090895    1.86733590623783
O          -2.55217296297466    0.68589889728081    1.40099001106807
H          -2.55360635380825    0.60273867915688    0.42594246179824
H          -2.27313877559130    1.59033993289163    1.56689881110533
O           2.54098587784555    0.28961568714069   -0.36476515329560
H           1.88617967171244    0.43532594928078   -1.07347564420318
H           2.51442662557983   -0.69330139455377   -0.17606071801442
O           1.03537416734029    1.18748245619869    1.38777429851790
H           1.79342191318131    0.84643307588789    0.69167536937921
H           0.37243081174263    1.70846589545928    0.81321369166012
H           0.49872433736403    0.32405928767661    1.66581420146066
O          -0.64094576037353   -1.70761969113777   -0.72196221715812
H          -0.27887324285792   -0.91808520943958   -1.17662131147656
H          -0.43764433485929   -1.28509390983630    0.94456444227112
H          -1.58529220057999   -1.66735568036747   -0.89891201197359
N           2.13765349581364   -2.27647847285718    0.22379599720378
H           1.98359621973081   -2.39306931896877    1.21793887791693
H           2.79605586262795   -2.98295682878393   -0.07771427268095
H           1.25346770341884   -2.44819585704674   -0.24433590082712
