    26
        -50.46154481  Gyration_radius:  2.43331533328 Dipole_moment: 1.387
 S           1.01839669493225    0.37283361773732   -1.84544859109548
O           0.73169710880918   -1.05718505727037   -1.92395441321761
O          -0.10919843223046    1.17328455060954   -2.27429470345668
O           1.52727700033760    0.74392777404433   -0.53793972546731
O           2.18979486271786    0.65962929299545   -2.86567584334998
H           1.75221802914724    0.65753624431899   -3.71084449869590
O          -1.84058467837844   -0.64892397466104    0.56342017637659
H          -2.15423469328768   -0.70146027415580   -0.37063141312797
O           1.82366073825532   -0.71546479679587    1.68393330532396
H           1.99687572088079   -0.09638614558897    0.94972414328768
H           1.21064076682969   -0.22578010452774    2.30594034134855
O          -2.05636916040821   -0.63087590158322   -2.07862653483791
H          -1.44368754445535    0.11729897535504   -2.22880025860975
H          -1.57600982434132   -1.40355829143875   -2.38785135337848
O          -0.69898593562840    1.78555491701514    0.41183473946262
H           0.18950576962961    1.50195614229058    0.10956380518500
H          -1.09644947580404    2.18208724110454   -0.36889256986842
H          -1.49689722661246    0.26787552685216    0.64939727755725
O           0.22751422633295   -2.05863301348088    0.34495943358158
H           0.95963146382942   -1.58503827193686    0.98913858942790
H          -0.67724355268411   -1.54813043174824    0.52311098754797
H           0.48629723908334   -1.76788564477536   -0.59819601866776
N          -0.03022142300789    0.59879768143335    3.07319266974421
H          -0.83916863511884    0.01047063529230    3.23170490102762
H          -0.30052436954130    1.31685214493765    2.40855281508958
H           0.20606534075216    1.05121716406929    3.94668273879840
