    26
        -50.45591209  Gyration_radius:  2.4916179839 Dipole_moment: 3.166
 S           0.72901580658524    0.61801486757639    0.76855469318647
O           1.34391504753948   -0.06013924835756    1.88208059436871
O           0.83160603382787   -0.20106365405668   -0.46149184353415
O          -0.65723301390982    1.00547949661861    0.98987742290517
O           1.49380007428944    1.93905775700416    0.47597526175668
H           2.44911920424287    1.64424822045878    0.42766830815296
O          -2.53774062833081   -1.47187999346214   -1.53034554992071
H          -3.47245354435020   -1.33207965765139   -1.68804704666011
O          -1.79513233168920    2.30921156868963   -0.93445644747149
H          -2.72103354974442    2.39517250324754   -0.69856550192717
H          -1.33204299212184    1.98179986801473   -0.12255981588438
O           0.28056687149165   -2.44166350813870    1.22838567759076
H           0.55503168624986   -2.36934302696940    0.30946688954332
H           0.70831993992820   -1.68688617453463    1.67138587102797
O          -2.12370963292791   -1.26171396394954    1.00283289871270
H          -2.40987827061137   -1.46591060645597   -0.52867428988883
H          -1.40021764666750   -1.89043402710693    1.20920417594154
H          -1.71468905306082   -0.38504020801008    1.12198672677796
O          -0.85043343890782    0.28904111065207   -2.18759302293001
H          -1.25975119160730    1.15263451201999   -1.83785682856051
H          -0.05573276082651    0.07337743707849   -1.48246498258479
H          -1.54745829245668   -0.46019049088127   -2.01486727581263
N           3.73772140028263    0.62432059379507    0.54115406041775
H           4.65161095045806    0.86656355927449    0.90147011145699
H           3.85676743258933    0.04950813949820   -0.28267225967852
H           3.24003189971738    0.07791492564903    1.23955215300379
