    26
        -50.47000447  Gyration_radius:  2.46312268672 Dipole_moment: 2.755
 S          -2.14130234937571    0.52242527396210    0.22164314259730
O          -2.79784737650824   -0.75896964825206    0.13295707456554
O          -1.38252688950111    0.73175040628669    1.43048107274699
O          -1.33000684490534    0.83791102657992   -0.96494866463052
O          -3.31330623085051    1.60196922769219    0.19606421749431
H          -4.05734711104463    1.07001776687895    0.45729157001559
O           1.74649250244972   -1.26070157423651    1.31930143361429
H           2.11242169657170   -1.97388265727856    1.84370620981565
O           2.29509382223782   -0.37938882105388   -1.22871830033242
H           1.55608038729226   -0.78441001115121   -1.71236509422122
H           2.28487489010992   -0.78985975437715   -0.34413437637388
O          -0.17316236412257   -1.17497366718769   -2.19456568952381
H          -0.65598734086042   -1.40762469462509   -2.98841099678450
H          -0.65945950182276   -0.41939504022299   -1.78526707742572
O          -0.53492393506383   -2.13739333664715    0.37401995911164
H          -1.40157309477561   -1.70118188651390    0.47106491348465
H          -0.35501179951918   -2.10778909063820   -0.57846178800568
H           0.83585187862318   -1.55861273313110    1.05317845472811
O           1.10611372321797    1.27915510210270    2.13869710531274
H           0.13739641250770    1.14302962250531    2.12222912141831
H           1.47169744222436    0.38034769382674    2.04907806121785
H           1.16216968107527    1.74490673748969    0.65066652185721
N           1.06209445906107    1.81049787235225   -0.41648806440080
H           1.67412804079456    1.05077939417596   -0.83578945804238
H           1.29246557607537    2.73105366723441   -0.77101589721606
H           0.06557433621966    1.55033912417186   -0.64021346088979
