    26
        -50.45388645  Gyration_radius:  2.45321595235 Dipole_moment: 6.307
 S          -0.84283638382338   -0.33857263037690    0.58658631805444
O          -0.07630701412133    0.85635546451544    0.14158877454306
O          -2.12990946362826   -0.36050320034760   -0.09258361348215
O          -0.06055502099543   -1.53048329158374    0.37420928186379
O          -1.06533220325767   -0.16851714403795    2.10812288247145
H          -1.64746558884515    0.64333345274409    2.16327346825255
O           2.11754562084912   -1.90392170785453   -1.33686778903412
H           1.35803650050523   -2.46157473701963   -1.12461836929539
O          -1.43050710977155   -0.90805893622163   -2.54249215384445
H          -1.76475097763309   -0.80704396644104   -1.61483015086797
H          -2.09270466560448   -0.51243025237776   -3.11286156617669
O           2.27008176047404    1.40096827706700    1.29153236823710
H           1.35770273697602    1.28354239692133    0.95942227726393
H           2.71314051492632    1.98212405581110    0.67102778537474
O           0.86550711990713    0.11208243569712   -2.05032773612138
H           0.01280936221769   -0.29162059762174   -2.42427242014351
H           0.54181556569122    0.50587837177513   -1.14332852145366
H           1.49224497702830   -0.75823889126929   -1.78000235623920
O           2.53668423340501   -1.30625305005548    1.13923253602174
H           2.63604439139815   -0.35301733392719    1.32138653828863
H           1.58314753021359   -1.48155394172693    1.21263020751614
H           2.48688331350449   -1.67263851474741   -0.42819179715403
N          -2.58681411123327    1.87362257493116    1.59722704899703
H          -3.43631800913576    2.23529435186105    2.01052507723574
H          -2.82153136950002    1.31091977307750    0.78388910340995
H          -2.01661170964873    2.65030704133103    1.28972279629538
