    26
        -50.46972926  Gyration_radius:  2.43100552616 Dipole_moment: 5.125
 S           1.13741520741911    0.39568518377475    1.00848692860797
O          -0.19896614999075    0.87906954335989    0.30032986168693
O           0.76496382972247   -0.19228554279982    2.27313882960411
O           1.69176392309386   -0.61462893833466    0.08446757564995
O           1.95203947197257    1.58028233007649    1.07677262002023
O           0.30648925743205   -2.69033793802122    0.93985896370918
H           0.95526687626069   -2.04242413232432    0.59521371994064
H           0.33149491507703   -2.57178726809960    1.89382048016036
O          -1.57982349079824   -0.21233948463520   -2.31327867283466
H          -2.16828390601241    0.54187863571408   -2.24639228890448
H          -1.72757835821259   -0.73526769458451   -1.50489109375300
O          -1.81151189272101   -0.49996501851657    2.80620507777516
H          -0.84071855365755   -0.39049492294327    2.69799681124129
H          -2.07533673917988    0.13442773868699    3.47290624627089
O           1.40607749573831    2.80208004349545   -1.14142724796849
H           0.59835837840594    3.26422830754848   -0.90817974861659
H           1.72847843246281    2.41544584683259   -0.28446776815854
H           1.17236828260199    1.42463688541638   -1.93463616407020
O          -1.75076627777556   -1.22000775843442    0.22864367831146
H          -0.81819566714825    0.09981814492131    0.28811140383565
H          -1.07035168766952   -1.92163631409855    0.40418373366604
H          -2.14285750359452   -1.05052102609744    1.10355666007116
N           1.06394066037311    0.40100417213367   -2.19068027186922
H           1.62097559980112    0.15455693144899   -3.00188898697553
H           0.05409699246196    0.16731311288589   -2.33359046194131
H           1.40066092393343   -0.11873082741441   -1.31425987544918
