    26
        -50.45023501  Gyration_radius:  2.51063904988 Dipole_moment: 0.801
 S           1.00467421976547    1.59602877173868    0.78756103560538
O          -0.43098402175294    1.76906955077211    0.78698560792344
O           1.49038732146362    0.63538095061967    1.75349266100920
O           1.51458788308554    1.30810343840405   -0.55629385339853
O           1.62676271852353    2.99030280967123    1.20258756348350
H           2.49645188902091    2.71063970324704    1.46560887810592
O          -0.03393515585977   -2.38667987583533   -0.20103971341507
H           0.20124786003543   -3.31439831670407   -0.14837737310814
O           0.11979089188191   -0.03747982287372   -3.28942681444000
H          -0.63492538385602    0.03731234108876   -2.60707129538050
H           0.44743706665159    0.85621145950191   -3.41423496450889
O          -2.11398972912199    0.27580134835129    2.21208594283390
H          -1.55280162008950    0.88023364787019    1.68214047859742
H          -2.30937769900214    0.74233021105859    3.02601620953315
O          -0.05245673606944   -1.47295556705222    2.18083711016092
H          -0.05716329164098   -2.05075240880492    0.75947124373311
H           0.61030818215824   -0.75204347664625    2.13216031253474
H          -0.90678163502508   -1.00957002954878    2.29180838645712
O           1.61431862719563   -0.97141895687534   -1.51183156206326
H           1.06339225249510   -0.69348318311735   -2.36573185235391
H           1.66601703110906   -0.04744147947304   -1.01991331012579
H           0.97367072153459   -1.57013001534476   -0.96351857448642
N          -1.54667101609321    0.11867893168076   -1.29562778842790
H          -1.13815962129417    0.79260323332649   -0.64702632053455
H          -1.53570143434022   -0.78387959728141   -0.83275057184268
H          -2.51609932077581    0.37753632222542   -1.42791141589960
