    26
        -50.45023503  Gyration_radius:  2.511337285 Dipole_moment: 0.803
 S           1.45335675315536    1.21857118290512   -0.76379981186890
O           0.14125569322654    1.46635120334520   -1.31889907194876
O           1.61653662934521    1.65817402721024    0.60437859066410
O           1.85261020058267   -0.18242561527047   -0.92740065353024
O           2.47411635411932    2.06816663856160   -1.62377938013616
H           3.21501907062017    2.08826453755361   -1.02848086198562
O          -0.77645239356661   -1.12198015087560    1.96716138365387
H          -0.84197344912138   -1.47166111557108    2.85718152742322
O           0.10132189368950   -3.02350006868940   -1.30280465403067
H          -0.59273607958290   -2.27561934751294   -1.29744396740457
H           0.68972366687082   -2.82800504650628   -2.03565086050637
O          -1.92287173771795    2.39712767719984    0.08401282454879
H          -1.96010099866204    3.34718609106190   -0.03523582143278
H          -1.20203260824609    2.07917740657062   -0.49925656670415
O           1.23080117843874   -1.96914411214914    0.66671603723359
H           0.43516655909061   -1.62397380591106    1.23016220447460
H           0.79420894335064   -2.56383493744613   -0.08530207483607
H           1.56969849745611   -1.16274492595376    0.08942813425869
O          -0.50732877620117    1.40723689867337    2.16425129353695
H          -1.17516323932995    1.80282045259080    1.56897790950857
H          -0.69270534700791   -0.11285391444075    2.07012230186841
H           0.34706357104982    1.56358714359130    1.70930690498307
N          -1.43404866865227   -0.93360156682710   -1.08009503309452
H          -1.70528713986814   -0.87227582122159   -0.10453719136208
H          -2.27426503726740   -0.82519637110112   -1.63375879984601
H          -0.83591352577020   -0.12984644978709   -1.27525435347080
