    26
        -50.45023536  Gyration_radius:  2.51128263397 Dipole_moment: 0.813
 S           0.19459338409616    0.72528878298699   -1.90196265300771
O           1.42204149989136   -0.03919782396005   -1.92530667432616
O          -0.99916864489207   -0.06662983828078   -1.70431615192939
O           0.27201625459740    1.83327799600545   -0.94521024231221
O           0.06223785829779    1.39000393980751   -3.33153866164242
H           0.96970435858158    1.62604833116003   -3.48850286591757
O           1.18291653958873   -0.86729923478664    1.89237245383876
H           1.87963710504674   -1.14420627096319    2.48956727530960
O          -0.98747976358488   -2.67246293980696   -1.15331995255439
H          -1.06856882897679   -1.72225885474592   -1.38039962991577
H          -1.09817736315164   -3.15119793756858   -1.97602278425365
O          -1.04985888402953    2.30288364825766    2.10660519962572
H          -1.32456179121883    2.95428545782026    1.45720874773454
H          -1.42768131402997    1.41215580255030    1.78271082029054
O           1.51957118584741   -2.12671825375313   -0.30054731907151
H           1.62389118321207   -1.39766252301539   -0.94785523751214
H           1.32422674820670   -1.39770204378496    1.03521460565618
H           0.65557972928016   -2.52740637886640   -0.52380976582909
O           1.22439697685615    1.60579297306973    1.32655558263108
H           0.35111387645324    1.97117039490447    1.78885644391329
H           1.24781791846696    0.59805064559961    1.55777540566691
H           0.94480368562795    1.68244302913440    0.31938698225927
N          -1.70703580195966   -0.00002300778647    1.08725496706636
H          -2.63545704347063   -0.38820353960489    1.19510706140380
H          -1.05061758154134   -0.68079822460597    1.45423434463699
H          -1.52594130718677    0.08036587023028    0.08594203824533
