    26
        -50.45114653  Gyration_radius:  2.59776494384 Dipole_moment: 3.642
 S          -1.30400740904868   -0.72177097392961   -0.87024381044660
O          -1.32678710314732    0.66599845888916   -1.25339328485784
O           0.14198981365238   -1.22513613984247   -0.96992336662516
O          -1.84248197256296   -1.01304656565244    0.42740636112249
O          -2.04285118492811   -1.55380179484183   -1.92792381842546
H          -1.65431188382234   -1.20488288149554   -2.80809116903873
O           2.60208334876570    0.73881555364230    1.01196427957349
H           3.35682005862326    0.76910233145502    0.42361054954338
O           0.19510446645953    1.88069300089590    2.69783111453684
H           1.14052336878379    1.73965687992263    2.79861188584550
H          -0.21669922605014    1.01014389632601    2.81598509717037
O          -0.75777599064838   -0.73803069901731    2.79388020087673
H          -1.26242280897060   -0.79094789429142    1.95141424041002
H          -1.29399090083561   -1.17681632166192    3.45641801645642
O           1.30957733793583   -1.54999550876325    1.20664198726376
H           0.64751011105548   -1.37628568384354    1.90178022970194
H           0.62285877582183   -1.42034935683708   -0.04575295177461
H           1.89446287502822   -0.74966397850360    1.19349479270208
O           0.59359962061637    2.11147750500339    0.00324781857216
H           1.88860579665279    1.27606834152618    0.57493862796772
H          -0.10822373333293    1.65592938745779   -0.49198538705886
H           0.22806369907801    2.28329519506756    0.89089162198047
N          -0.84820001489781   -0.33909564368856   -3.84165053555774
H           0.10063003134006   -0.66585383390669   -3.96645122571205
H          -0.83425765919476    0.47346863244149   -3.23125606456849
H          -1.22981940641055   -0.07897188634726   -4.74144521966071
