    26
        -50.45114619  Gyration_radius:  2.59745900054 Dipole_moment: 3.649
 S          -1.36452841094773   -0.83887324136250    0.63752542997298
O          -1.05921189330644   -0.75767164767250   -0.86394463450452
O          -0.23083129821117   -1.43289818507071    1.29711852407015
O          -1.76328762408111    0.44730149514391    1.13305720684330
O          -2.55660071635832   -1.80394433065714    0.70580750120061
H          -2.14448696755696   -2.69838312128485    0.42715349339929
O           2.05936210396097    1.06639555980307   -1.72009200107647
H           2.41373937217254    0.53434300068330   -2.43288249086371
O          -0.75110878630664    2.81598888110795    0.66636391236518
H          -1.13399007038615    1.95758477088319    0.95589189742346
H          -1.33588160645814    3.49785189761235    1.00115230344404
O           1.96346298359807    2.38606140792434    1.13682685608022
H           2.33514069709344    2.56933089169464    0.26954365304701
H           1.02109419036763    2.60809053864353    1.07387411890378
O           2.10588408478011   -0.27919945898664    0.54376821195974
H           2.11010834496776    0.50289098429897   -0.90252394779345
H           2.15060131880555    0.54416600481834    1.06433369528047
H           1.31082662065801   -0.74732644470852    0.85031450289138
O          -0.53720822616683    1.52019170061390   -1.72693125681143
H          -0.89487087965885    0.21727573286715   -1.24594663683706
H          -0.66154198414361    2.13272823920152   -0.97792032388319
H           0.44416719328465    1.42616558000096   -1.83092020604989
N          -1.09358473061547   -3.79586042658373    0.02949209972900
H          -0.89657165277621   -3.80648369917699   -0.96231190029920
H          -1.15643416588330   -4.74808873989047    0.36456799766699
H          -0.33424790683861   -3.31763738990190    0.50668200385075
