    26
        -50.45114655  Gyration_radius:  2.59741810542 Dipole_moment: 3.647
 S          -1.33240658418657    0.03269957656262   -1.09763720964690
O           0.12240994314803    0.22251321257260   -1.54693462709422
O          -1.43592945278725   -1.23668112489363   -0.42592357055683
O          -1.76996046214379    1.16972259926933   -0.33958197357468
O          -2.10745434875422   -0.02705731782762   -2.42144904374918
H          -1.79380201725590   -0.91070254135667   -2.83181817083260
O           2.63392766651791   -0.04426995332797    1.18107680672807
H           3.34558639974726   -0.52193481433929    0.75435059179020
O           0.31122473333349    0.45159287663025    3.24582136804090
H           1.26588010264259    0.55164437760620    3.19562342505291
H          -0.06011561682460    1.19694012341641    2.74791147104228
O          -0.53745559623099    2.49636776911713    1.55070933875842
H          -1.01045547430599    3.30629383071471    1.74902092003461
H          -1.09593237018835    2.00014846027921    0.91098311086140
O           0.51086815965794   -1.58287007308234    1.43057739459692
H           0.20188506712709   -1.07689810836074    2.20479566744584
H          -0.20583558451795   -1.53393423258976    0.77542190769220
H           1.87271254225594   -0.68071230965115    1.24538730371694
O           1.44752431452744    1.85460736717866   -0.21009780931196
H           0.82820128930867    2.25055143757072    0.43124313991672
H           1.99866478593912    1.21838611596042    0.31348986940431
H           0.67222335202276    0.95838619787618   -1.01841873376051
N          -1.09563675814078   -2.30626729131078   -3.00996843172922
H          -0.14546775531938   -2.22623273326009   -3.34673271300953
H          -1.54867089088108   -3.07968529848466   -3.47853906902056
H          -1.07198543470349   -2.48260813629221   -2.00931094279419
