    26
        -50.45942980  Gyration_radius:  2.42427029661 Dipole_moment: 1.899
 S           0.31747939040351   -0.32845213575432    1.83143241878467
O          -0.27770851629212   -1.30780462530028    0.95057329657116
O           1.73706431401191   -0.56076507083092    2.07475864546708
O           0.07777111656242    1.03706556934907    1.38604914694188
O          -0.39597305657494   -0.48895869432740    3.22918810221908
H           0.17915988067627    0.01599333780714    3.79383614906454
O           0.04261508330401    0.91349726998917   -2.29986227268349
H          -0.24907048470053    1.20051450541053   -3.16533656785433
O           1.77360170151011    1.90843745494940   -0.46482761050243
H           1.15792679310910    1.79309023825354    0.29148792170852
H           1.22718005020822    1.73739071513149   -1.25821607328468
O           2.90250165201027   -0.29413538582453   -0.12615450075494
H           2.56680166014692   -0.46220590059339    0.83414348087621
H           2.59332808283407    0.70189691546164   -0.31121556221989
O          -1.80630389411958    1.28732493489714   -0.55154809884478
H          -2.35220024155153    0.47251739108151   -0.46034137283031
H          -1.23519650259989    1.29819101527279    0.23738920835902
H          -0.73207768054708    1.07091034910248   -1.67019531827528
O           1.03045609082831   -1.41524762259193   -1.34715924522983
H           2.23988278640031   -0.86415565963838   -0.72355688686844
H           0.46535207268939   -1.53520707769446   -0.55313180207236
H           0.63720167462867   -0.66676720593800   -1.84211315896157
N          -2.96168326602419   -1.12578303321702   -0.07350201942395
H          -3.68811455370152   -1.18025192224636    0.62918423040137
H          -2.08311631969143   -1.38826647109059    0.37128760830891
H          -3.16687784360160   -1.81882890166003   -0.78216971884495
