    26
        -50.45942957  Gyration_radius:  2.42428101992 Dipole_moment: 1.900
 S           0.42697073411437    1.39967615825883   -1.18861868581713
O           0.15236446065609    2.69658341486781   -0.57936827427137
O           1.43005318397749    0.63790438202269   -0.47945285024640
O          -0.80111556466287    0.64460894402897   -1.39347573485188
O           1.02271498966649    1.70710667330948   -2.61663330661717
H           0.42549040854472    2.37766344549591   -2.93025141497498
O          -1.15820868053481   -1.52962302378296    1.56481145017891
H          -1.42989330942965   -2.33088802973751    2.01284749250961
O          -2.46845307778089    0.67141669977883    0.67508100495561
H          -2.03689619500252    0.66640745117444   -0.20702803097907
H          -2.21443617628958   -0.18192896928879    1.08081805667294
O          -0.81119719284307    2.24241447987560    1.68757389801723
H          -0.40647301443005    2.58608933887679    0.80368755086284
H          -1.63894806245249    1.66899696372614    1.35835618370288
O           0.74779852036514    0.32275789253463    2.05769784843889
H           1.17027178527960    0.37943095881897    1.17309605871159
H          -0.12172907310352    1.50462030924345    2.00546350784095
H           0.13806863365841   -0.44267554385881    2.01145536760409
O          -0.59633389406918   -2.01588367327399   -0.89753704593285
H          -0.71272757615942   -1.10996711718736   -1.23587292551868
H           0.36601516581275   -2.20243027441352   -0.99441627108918
H          -0.93599207212837   -1.79421369349145    0.61512237007285
N           2.11158384190613   -2.08587001745287   -1.11594412344405
H           2.51436647352298   -2.21733067807296   -2.03510094356010
H           2.73668714574479   -2.51070949447233   -0.44259008911108
H           2.09001854570096   -1.08415659693646   -0.92972109320913
