    26
        -50.45942984  Gyration_radius:  2.42431914423 Dipole_moment: 1.898
 S           0.49182545990727    1.66177276334959   -0.74826985515029
O           1.21772894813290    1.04531136933181    0.33905798066824
O           1.13068490018982    1.47326123714543   -2.04632849123483
O          -0.90507676622118    1.25188976700222   -0.78594245836510
O           0.50868744709403    3.21547286116321   -0.47597132160155
H           0.21529901133493    3.55746040618898   -1.31360071889779
O          -0.97191669975326   -2.24131829617922    0.39470123392564
H          -1.37399819962997   -2.98923134350340    0.83678964018619
O          -1.34166738364740   -1.06099104443063   -2.01749607473532
H          -1.37120084201403   -1.64351755279190   -1.23179668760546
H          -1.37090507742744   -0.14936886841713   -1.65331006620067
O           1.10410584244369   -0.98640967839218   -2.51752748575043
H           1.21471701258562    0.03687401653611   -2.45409045068827
H           0.05294504352033   -1.11146838891308   -2.46430951036369
O           1.58554602034855   -1.53458480422053   -0.12521939562889
H           1.43270131384160   -1.33032316922308   -1.57246357291909
H           1.57686879566284   -0.60247882487449    0.18314128524163
H           0.73347174649053   -1.91877098685338    0.16803694460140
O          -1.77428491822597   -0.03322384941998    1.44118837896026
H          -1.58439587900681    0.54455704313890    0.68039705845997
H          -1.31347236851448   -1.41403664289420    0.86419344432692
H          -1.14542625779684    0.25361734040639    2.14299634567697
N           0.22891939883115    0.87462501123408    3.03762021920961
H           0.79998956138718    0.29134912029504    3.63621916856939
H           0.10663722376801    1.76545458204524    3.50227132021847
H           0.75221664668690    1.04407793227309    2.17971305907906
