    26
        -50.45469726  Gyration_radius:  2.51003950706 Dipole_moment: 5.578
 S           0.50424328872712    1.64437583273207    1.39110947471382
O           1.01437617254564    1.25989504413925    0.08607287050449
O          -0.42883188825342    0.51995439150889    1.89510049725786
O           1.48613891800350    1.88967783429541    2.38711055801730
O          -0.41892200546980    2.85330000691649    1.21565942389561
H          -1.13706840858177    2.60227846752129    0.49273577067281
O           0.73260663484892   -2.58516322316810    0.47901754415892
H           0.85963271543118   -3.36695877239638    1.01833200102290
O          -0.31342217236258    0.28517966755464   -2.00179783521004
H           0.18202750202748   -0.48206606928560   -2.34200319114596
H           0.30552428533176    0.73131622608212   -1.39161595173527
O           0.94621311970376   -2.12548581931354   -2.26061912928396
H           0.97427850155237   -2.33523293706799   -1.31141900617562
H           0.63315536584138   -2.91130513413071   -2.71009014519455
O           2.34075490354304   -0.66321990847712    1.37563786433644
H           2.30782303524583   -0.19146413206485    2.21372138388819
H           1.33939093239012   -1.89803989151800    0.84782677161021
H           2.11304699534073    0.01348465303585    0.71644965724697
O          -1.41476115547329   -0.92951755441245    0.07271786911119
H          -0.81404953786911   -1.68254697094811    0.21679757029298
H          -0.87370075926658   -0.03725638012027    1.15233966313792
H          -1.10382986573994   -0.51174248290744   -0.77216981246701
N          -2.14095519462741    2.08259830263703   -0.51675535950642
H          -2.68639010242682    1.33925568193463   -0.09728775254819
H          -1.63957079291413    1.69404118248880   -1.31014464022286
H          -2.76771048754427    2.80464199496379   -0.84672608639199
