    26
        -50.46272366  Gyration_radius:  2.48129824561 Dipole_moment: 6.096
 S           2.07756435884780    1.04980370901013    0.22351595056474
O           1.57035839340657    0.60795843889445    1.49938086736312
O           1.65994003638322    0.11666496494492   -0.84091143216545
O           1.82160412321275    2.42783808342310   -0.10907129513767
O           3.66542947210745    0.91705515822793    0.28234921651612
H           3.92768048208770    1.72571309475310   -0.14513584061838
O          -2.12580027008805    0.30486361970164    0.99147992479843
H          -2.90123704418900    0.75750145958672    1.32604403498653
O          -0.48871766453823    0.54828389207031   -2.45076649769389
H          -1.01910881846608   -0.20913796139873   -2.17028410091801
H           0.39109559127866    0.41946478662407   -2.05514532633951
O          -2.00405389391170   -1.44533724552276   -1.03145674297383
H          -2.87533093160520   -1.74193148770144   -1.29595918704436
H          -2.12992011294795   -0.80354308638698   -0.29331114234947
O          -0.81762026361892    2.12016732190054   -0.27607509022685
H           0.11518157311048    2.35024064759742   -0.10660823406716
H          -0.81910016914414    1.75749915084134   -1.18638880063352
H          -1.56009759366443    1.02587687227305    0.56956341305646
O          -0.22200526846988   -1.09010528695487    2.38374219083710
H          -1.01566624263237   -0.60238606075361    2.09795881313579
H           0.19642383622640   -1.75989645167837    1.06561418537414
H           0.49637073260884   -0.42568495751553    2.32641135011984
N           0.45633287011737   -1.99604938281524    0.04290749148899
H           0.99920988212809   -2.84868412309630   -0.02875867604844
H           1.01900825010840   -1.15438249853412   -0.31823485461903
H          -0.41754133834770   -2.05179263749073   -0.50086021740581
