    26
        -50.45346052  Gyration_radius:  2.47968550636 Dipole_moment: 3.235
 S          -1.10787204549304    1.48527045265154   -0.96608494813041
O           0.14294726587240    1.77440762292041   -0.27348140429527
O          -1.20530585891963    0.05766677275036   -1.26744970448156
O          -2.27682408616865    2.02500448253982   -0.33454629932320
O          -0.96990612475161    2.20909852351511   -2.37609639619651
H          -1.87491686262842    2.36048792033752   -2.62802042500194
O           1.97996100601428   -0.79241088045109    1.32036321551344
H           2.17177591352562   -0.21628737369798    2.06114176355748
O           0.83010339900921   -3.02968101336426   -0.26167581800873
H           0.09447172703088   -2.66158711776315    0.24747526200709
H           1.61830309982382   -2.86880536490810    0.26509050868676
O           0.83493676950684   -1.24487260125219   -2.25805516489757
H          -0.03435227746919   -0.81567739260884   -2.07865565153490
H           0.84731279345317   -2.04744309491644   -1.68403215795919
O           2.11333444291835    0.41372525836592   -0.93508450763418
H           1.33485075525130    1.08014569249978   -0.72691296042202
H           2.22393087153396   -0.07885789924666   -0.04941295958667
H           1.65659730359822   -0.31700935413682   -1.60508926967866
O          -0.59937439202271   -1.00887021798794    1.08347498165874
H          -0.87922969916261   -0.69120177735025    0.20025102515981
H           0.97931128028153   -0.88120996969220    1.28489439336449
H          -0.99459897993332   -0.33766621241556    1.69637588216209
N          -1.61080962494429    1.13862072228244    2.29686182456805
H          -2.40279569743802    1.13294936019113    2.92842720591386
H          -1.93459512702648    1.51076282558075    1.40274016067870
H          -0.93725585191499    1.80344065609859    2.65750142384656
