    26
        -50.46272396  Gyration_radius:  2.48141032619 Dipole_moment: 6.100
 S          -0.45228367821746   -1.48593220781224    1.74841298868944
O           0.94350381250208   -1.50998503675298    1.38589448408128
O          -1.00202836708202   -0.12825769353400    1.56712941773286
O          -1.27308736665483   -2.50570447381301    1.14735840263201
O          -0.53008019035274   -1.75126622771656    3.31861866626530
H          -1.27542404401322   -2.34095866226808    3.36284723368368
O           1.02551827859262   -0.20184858795066   -2.12204038558591
H           1.23961491519241   -0.56472938675423   -2.98260986617159
O          -2.39245889352173    0.64091336714412   -0.63953729532998
H          -2.08162230889760    0.39256262712066    0.24867673362573
H          -1.77482485469516    1.31206271160221   -0.95853929126974
O          -0.13309712050616    2.15223679306762   -1.58663122392288
H           0.29773400933073    1.30886047276603   -1.86164296906916
H          -0.15522164533287    2.71974848802091   -2.35766744103748
O          -1.00189539709444   -1.57195265805195   -1.33094539825907
H          -1.68571713094151   -0.87470144354532   -1.25090588678402
H           0.28908262964656   -0.79030977271474   -1.76249941207709
H          -1.04567955366682   -2.05482247632939   -0.48432772559823
O           2.62901308419605    0.02431882142638    0.08874215393610
H           1.64779538648357    1.06695740457903    0.64689158165273
H           2.23013025682936   -0.69932055030825    0.61607483114974
H           2.26587061073565   -0.10951767220887   -0.80547565715133
N           0.78104059617478    1.64018727630167    0.94571990543487
H           0.05281767659492    0.92068493215931    1.27369956642915
H           0.40865509061277    2.11076413894821    0.10765526759750
H           0.99264421408531    2.30000981662377    1.68510133934570
