    26
        -50.46272396  Gyration_radius:  2.48204840562 Dipole_moment: 6.090
 S          -0.71412769037295    2.22114193062822   -0.17845527926719
O          -0.60573013694952    1.60525193609581   -1.47804800485150
O          -1.14157007417114    1.22422479203862    0.82273786236230
O           0.42886025235136    2.98640297395705    0.24948457726058
O          -1.91684263836661    3.26437951598386   -0.25538275686387
H          -1.55341102779369    3.98990767517499    0.24159629732812
O           1.77419421566749   -1.24934218390297   -0.93929383680578
H           2.65912971387238   -1.46911268700158   -1.23380349003205
O           0.33020524062645   -2.47951749123170    0.95051554408389
H           0.72067115630961   -3.31560902972014    1.20634105117787
H           0.91644327340605   -2.08637170516514    0.26177126963637
O           0.58184296632909   -0.05935226909690    2.48806214122567
H           0.43808244742626   -0.95745278470560    2.16186880321580
H          -0.10482420417045    0.48958495602106    2.07026421050014
O          -0.46962436034324   -0.82626501688462   -2.45350068319057
H          -0.51533796153244    0.14836628346218   -2.36064461256126
H           0.41777953110056   -1.05283078731595   -2.12064034879898
H          -1.31821303830014   -1.05657920138101   -1.19315467393199
O           2.06669119718730    0.89801834973387    0.44271464371947
H           1.58020798108511    1.72699276898553    0.27396514130087
H           1.75208510740928    0.60502911945824    1.32335044100014
H           1.86425673166053   -0.35991668168028   -0.47048230130319
N          -1.73028805938266   -1.08093131721917   -0.19376747220520
H          -1.55540534010220   -0.10402987639948    0.21912696126873
H          -1.18558143066383   -1.76137054025344    0.35644556463950
H          -2.71949385228230   -1.30061871958104   -0.19107105890782
