    26
        -50.46272355  Gyration_radius:  2.48141034655 Dipole_moment: 6.081
 S           2.20798867096967    0.76670035302611   -0.07289284588840
O           1.65605596152319    0.87770864972517    1.25506560761348
O           1.65236319625954   -0.41695675487048   -0.75722960420001
O           2.14553395094200    1.95922970287439   -0.87842739386190
O           3.76178549582646    0.45005026724925    0.09323033873802
H           4.13126176873006    1.01374749374201   -0.57824218081790
O          -2.05184642362397    0.92329477697475    0.73066499337915
H          -2.75159533136150    1.56638383562724    0.85273173559826
O          -2.19839100050803   -1.42958640563632   -0.54005232932285
H          -2.22532732390975   -0.55764056814101   -0.08025524725124
H          -3.10485919576573   -1.67595007915537   -0.72622286230966
O          -0.42744779257571   -0.29630212387686   -2.50472129122020
H          -1.05728287008336   -0.82493542568471   -1.99717485233958
H           0.42882469399582   -0.39444856914649   -2.05267135702296
O          -0.51164392466493    1.97443430773276   -1.04017502706596
H           0.44584008358333    2.12038212088900   -0.92273494660267
H          -0.57222210769562    1.31584405513990   -1.76321322059862
H          -1.39391227461281    1.36354579750584    0.10517311080942
O          -0.35359692429272   -0.13288764741376    2.60352076874279
H           0.45200599810963    0.36290633950818    2.34663958939115
H          -1.07172954107524    0.32537231968446    2.13046746226460
H          -0.04649607591721   -1.27684762637178    1.62472021459384
N           0.16829780214966   -1.89351572213294    0.76281673667730
H           0.58398595669906   -2.78131410297382    1.01945111502181
H           0.84165773163366   -1.31961012406442    0.15228274517013
H          -0.70925051433392   -2.01960486021129    0.23724872050131
