    26
        -50.46272423  Gyration_radius:  2.48160529592 Dipole_moment: 6.099
 S          -0.46185208117802    2.11744708192381    0.87978094513235
O          -1.37346975053449    1.12533543237597    1.39407785484919
O           0.86762417314175    1.51770015160723    0.65269727315439
O          -0.93277929769475    2.87499230765995   -0.25129950114239
O          -0.23447603146189    3.18662780311162    2.04007305443209
H          -0.24092901154711    3.99617468500512    1.53997410219410
O          -1.27375945603140   -1.63584399830652   -1.13898771492917
H          -1.89200953376381   -2.01394539289581   -1.76578857012938
O           1.72051027447120    0.64767469632681   -1.77798784745116
H           1.80832463763049   -0.28966159939498   -1.56046232231907
H           1.56755416351330    1.10474624317501   -0.93241387847625
O           1.35936759418057   -2.09157100945698   -0.97027136413889
H           0.38621317660607   -1.98324845510756   -1.08801496526971
H           1.62371093908568   -2.84324237109204   -1.50150190497945
O          -0.97524589300361    0.79740526115599   -1.91459799037108
H          -1.21793487401651   -0.65745056090230   -1.37936102874559
H          -1.11652486151054    1.57808408788551   -1.34659781744080
H          -0.01803648283711    0.81665280310953   -2.12324881517544
O          -1.47893653748364   -1.48853516418077    1.58996989281813
H          -1.68152938663822   -0.53205844014267    1.65780568469295
H          -1.59406675844632   -1.68642023048967    0.64286256197990
H           0.03760597810363   -1.24218768811167    1.65114947125659
N           1.05763504121846   -0.92265451580286    1.48991238877872
H           1.63151369631503   -1.03821687244936    2.31704328220883
H           0.99995761825891    0.11309132687448    1.20758244006069
H           1.43153267362236   -1.45089557187771    0.68760476901090
