    26
        -50.47126129  Gyration_radius:  2.42917978927 Dipole_moment: 4.306
 S           1.74366693932401    0.32180470852532   -0.71221071892554
O           1.82680439008095   -0.44830667433793   -1.94457858190604
O           0.74384100724984    1.37927499947303   -0.81813057961220
O           1.55035338606889   -0.49936460812093    0.46156598315295
O           3.14184644100235    1.03604276973257   -0.54354155297518
H           3.31109239193664    1.35149156867630   -1.42490027218851
O          -1.97075826406351   -0.54993178235836    1.43234743865014
H          -2.67898041757471   -0.57148046104105    2.07639614739790
O          -1.73567008015290    0.43027128087910   -1.11327072538074
H          -0.89118203131565    0.92028168142625   -1.03660812952353
H          -1.96393289288670    0.15948390261618   -0.20379256281505
O           0.17978793243575    3.03466185094448    1.18519160525112
H           0.46757072255462    2.50535342985716    0.41345841589240
H          -0.59767384440140    3.51863102771940    0.90158068005865
O          -0.25264970688389   -2.51754101150619    0.58292921597384
H          -0.41704207369184   -2.23538318445477   -0.96690514935745
H           0.54731732155415   -1.97450480223368    0.70622320237399
H          -0.96672079263920   -1.98921803916181    0.98674518573907
O           0.10499294817586    0.62281674389752    2.44090248481394
H          -1.20351819175994   -0.07369589147613    1.87462147600547
H           0.76887344524161    0.21301332648747    1.85570262429791
H           0.11861793271801    1.57027160441644    2.20839164256740
N          -0.45995433733120   -1.71371952337802   -1.89785023446353
H           0.49654337070471   -1.28974733647407   -2.05042327022997
H          -1.12368521704396   -0.89233755083416   -1.74408539236783
H          -0.73954035930430   -2.30816803926871   -2.66975896243575
