    26
        -50.47126128  Gyration_radius:  2.42924601682 Dipole_moment: 4.303
 S           0.81943967076183   -1.68835514530697   -0.36024058915150
O           1.68088837306016   -0.54519390672679   -0.07700863120597
O           0.61539385212165   -2.50064306609881    0.83026754159119
O          -0.41517478386998   -1.29806630135594   -1.00285287101540
O           1.59956572868246   -2.59955503029378   -1.38720485232704
H           2.25696539889250   -3.00588365528374   -0.83252729341275
O          -1.34188248056884    2.10602439138804   -0.05749279545832
H          -1.71461505153223    2.97022219021091   -0.23384353892165
O           2.31751179652012    1.26946680776207   -1.91385291785166
H           2.76030664501629    1.97100493444228   -1.43341760951771
H           2.18056720676971    0.54358680959977   -1.27125725506292
O           0.58236085271051    1.17054074023539    1.65083046109574
H          -0.05317517294325    1.65320203248457    1.08894069384922
H           1.11728815571934    0.62821502318508    1.03528512193304
O          -0.37797428879598    1.09750024768591   -2.23817600732441
H          -0.97416906074310    1.77494812296232   -0.93282511777269
H           0.57610889994680    1.28512401325804   -2.31796450543965
H          -0.42618782687677    0.16180175039634   -1.96747425881551
O          -2.55284833732642   -0.32591882543734    0.34765428236274
H          -1.71081690465863   -0.72869116487134    1.62728935974386
H          -2.33251723641590    0.61580664963423    0.21832955479109
H          -1.99443901210431   -0.79445742638901   -0.29937437765584
N          -0.87721199739529   -0.90928701429939    2.27000492672681
H          -1.15369527178357   -1.16775673045264    3.21028967153351
H          -0.28515210010025   -0.02190576712529    2.23982549769243
H          -0.29653706508656   -1.66172969959926    1.80679547961639
