    26
        -50.47126126  Gyration_radius:  2.42922014925 Dipole_moment: 4.303
 S          -1.79467864548717    0.26088163529179   -0.60202757898951
O          -2.05422436073265    1.68926803201160   -0.49678582310642
O          -0.76270304025581   -0.01534395282136   -1.59595480625639
O          -1.51040538688378   -0.36246096979603    0.67081156272540
O          -3.12811246585991   -0.39108286657948   -1.14093690281933
H          -3.37941545039941    0.21284754454115   -1.83164887070765
O           2.09014837926618   -0.75772092279849    1.13863977614445
H           2.86456646722397   -1.22508760465791    1.45283927161649
O           0.10514951264483   -2.47247199162667   -2.12611033418029
H           0.86724711137198   -2.35403026339868   -2.69553135144327
H          -0.29362207339566   -1.58497784241395   -2.01672587861299
O           1.61777322661992    0.98853368739241   -0.91662283447011
H           0.81255732043151    0.58985404272466   -1.30631683480956
H           1.93339507886568    0.34517798655192   -0.25402160898425
O           0.20225310686907   -2.44256527226248    0.59224978413819
H           1.40243569787300   -1.46140616273862    0.93137846271245
H          -0.54278470685042   -1.82035576062707    0.68662342860969
H           0.20956995225150   -2.68103487221419   -0.35377232551210
O           0.19191664222137    0.69117894881469    2.49573360178636
H          -0.56113804172124    0.23228315880838    2.08060346435792
H           0.97228251637364    0.17911954878651    2.21117729866798
H           0.19432173138112    1.93861187891027    1.51989366556014
N           0.15783954739142    2.51740087595477    0.62304566722750
H           0.31890564918406    3.50493578752389    0.78493337256997
H          -0.78761262711057    2.33657846678504    0.18563520147901
H           0.87433486872006    2.08186688784105   -0.03710937771074
