    26
        -50.47000480  Gyration_radius:  2.46323395866 Dipole_moment: 2.750
 S           0.13957818654497    2.14094055824242   -0.55258889928094
O           0.25092204541386    1.91915655727569    0.86850101576558
O           1.39772732030293    2.21152079688250   -1.25469847743600
O          -0.80532666141302    1.18837468537549   -1.15702866688653
O          -0.54551181728138    3.56396783258730   -0.76529192887411
H           0.20951881201698    4.09866554832282   -0.98617786647813
O           1.22104294298804   -1.60553323361632    1.51983441896378
H           1.97289733932926   -2.03548348354513    1.92898395079791
O          -0.70368528766205   -2.52533232877701   -0.21725730492126
H           0.01386174528477   -2.40295076884322    0.43181473993643
H          -0.35957245848444   -2.17363214332594   -1.05516183572520
O           0.21047176864002   -0.94844639676376   -2.29921898644719
H          -0.17893820080414   -0.11634463380918   -1.93741207920895
H           0.21500080653666   -0.85154740373946   -3.25218466914016
O           2.17048418154107   -0.21622549790133   -0.48869556319759
H           2.03061465376714    0.73629795740269   -0.64364762187220
H           1.59823733458650   -0.99819381270881    0.82860040131988
H           1.72307643651184   -0.64999371778530   -1.23182925672368
O          -0.54857097035420    0.15181018971814    2.66622665397129
H          -0.20215036994653    0.94610909773044    2.21197790709596
H          -1.56609104377921   -0.17229413191322    1.52862169331757
H           0.12402124696008   -0.53135777948048    2.49200006841907
N          -2.02413512333957   -0.38170958709110    0.58023993266128
H          -3.03565164809702   -0.34722882093875    0.62276074149490
H          -1.66475492148609   -1.32862546351409    0.26097517786862
H          -1.64306633782219    0.32805598051643   -0.09934352546454
