    26
        -50.47150100  Gyration_radius:  2.42635757346 Dipole_moment: 3.417
 S           1.34405292250618    0.96167829489786   -0.89713618106772
O           1.06526212887288    1.28319524823463    0.49471289364446
O           2.48286252852278    0.06466453756821   -1.01759010327090
O           0.17308587635722    0.48227481235818   -1.60363997957300
O           1.75238355686233    2.31392997033862   -1.60341558986754
H           2.54639822487116    2.55568755087139   -1.13878583168019
O          -1.81870217233125   -0.86733611955664    1.48511321121335
H          -2.62071519371692   -1.01106533442357    1.98816680695360
O          -1.99904042620573    2.02162333233027   -1.70648289314507
H          -2.61378594489700    1.58601230680760   -2.29898677190712
H          -1.15509470445482    1.53288329006817   -1.78028911278448
O          -0.82937497195387   -1.88819925026822   -0.85357400614607
H          -1.32519185419752   -1.62637256402728   -0.05478395515239
H          -0.58422780444711   -1.04731644270090   -1.28688254246116
O           0.81419905751661   -0.73718783492329    2.26674838406050
H           1.37583658897695   -1.68928883957483    1.13489903439391
H           0.99158914009708    0.10930747799233    1.81226628939816
H          -0.15236721613049   -0.85035400355992    2.20120534607754
O          -1.56034103309219    1.65684220571916    0.95786686301099
H          -1.90442388726478    1.90895291234095    0.08170826653566
H          -1.78740223201315    0.11616406883213    1.28388251778653
H          -0.58993583287572    1.66726212048047    0.85550427913257
N           1.57638247066344   -2.08321299338794    0.16230045732523
H           2.12535113247695   -2.93492375607939    0.18586311564683
H           2.06758774921522   -1.30961871804654   -0.36549890528884
H           0.62561189663893   -2.21560228231569   -0.30317157285073
