    26
        -50.47150115  Gyration_radius:  2.42628535735 Dipole_moment: 3.424
 S           0.45050941421171    1.51821815239007   -1.01603665991810
O          -0.55594336243786    2.52563150330993   -0.71940298523418
O           1.24918191092092    1.20222554978001    0.15894497895427
O          -0.10446030086526    0.33714667215414   -1.64630760958453
O           1.43330969781557    2.15364274883650   -2.07639557055621
H           1.72946056692212    2.94174309406261   -1.63354533315054
O          -0.11077505689767   -2.00843101138401    1.48884325757648
H           0.01375496671598   -2.85024083653372    1.92791190837103
O          -1.95942082685972   -1.03122953865237   -0.27721050232226
H          -1.34507660091269   -0.64472038151279   -0.93146405452935
H          -1.39173267954545   -1.53321330798967    0.33774331191653
O           1.53905161949763   -1.59289454421527   -2.46617944549753
H           0.96481045540587   -0.82094411646216   -2.29041402263184
H           0.99799472226776   -2.22663634093913   -2.93988826405732
O           2.04538713408103   -1.36924819057528    0.20143175364950
H           0.73862001186938   -1.82825646532082    0.98389007458739
H           2.02500883194749   -1.62114989141060   -0.73976930362726
H           1.91303202952818   -0.40238824499489    0.20220740660559
O          -0.02129783489409    0.56419790961464    2.45301772325386
H          -0.04137405438915   -0.40295124741476    2.32754963729102
H           0.59882312755656    0.88544621667114    1.76973248442873
H          -1.35390819474793    1.05504120907081    1.75644696095426
N          -2.07085495441969    1.25765477008504    0.99065293181149
H          -2.24472226687572    0.32801483844768    0.49732010840913
H          -1.57840823851741    1.88341954913320    0.29483111332425
H          -2.92097013735447    1.67992188384900    1.34609009999008
