    26
        -50.47150104  Gyration_radius:  2.42629785767 Dipole_moment: 3.426
 S           1.82908523667660   -0.32353471939848   -0.30069396179616
O           1.37542512692845    1.05369269604200   -0.17460125282398
O           2.37023135828054   -0.82188103561481    0.95416497875906
O           0.81592846338446   -1.19469504738790   -0.86163744287240
O           3.01843846431090   -0.31688091809689   -1.33963344503906
H           3.66654832537123    0.22615163188443   -0.90384654228153
O          -2.33462360901167    0.88190627542391    0.18643764592494
H          -3.20708492667164    1.24651487720834    0.03553152994238
O          -0.21871635277762   -0.62097388236250   -3.24859557899260
H          -0.78230642614112   -1.35939674150286   -3.48483576014857
H           0.26708008351946   -0.89429493386216   -2.44492600299297
O          -1.37516373960416   -1.64426268991049    0.61648453558936
H          -0.64435130121532   -1.63488874961720   -0.03211862365144
H          -1.87580339653140   -0.82394525711227    0.44595943619992
O          -0.74987193106321    1.58487931234421   -1.73966817335298
H          -1.77582983389384    1.15860650520481   -0.60095941958036
H           0.08918105546842    1.51796752146484   -1.24586813549149
H          -0.67620703360889    0.91668024918396   -2.44514313664199
O          -0.29581853761936    1.68344996707902    1.84846049079795
H           0.38647965166689    1.67469486311077    1.14909729664861
H          -1.13601022709242    1.55572639477422    1.36991492111871
H           0.01292042754804    0.25031381959857    2.44366118824761
N           0.25136579555803   -0.79029913672990    2.48267908144842
H           1.17923005703470   -0.89059488683455    1.98541211155796
H          -0.47603883139804   -1.28160100344038    1.87634890469611
H           0.28591209087541   -1.15333513146071    3.42837532473448
