    26
        -50.47395400  Gyration_radius:  2.40835601893 Dipole_moment: 3.050
 S           0.22461846081935    1.49692511989095   -0.89963091293031
O           0.52524228883723    1.45001206252921    0.52532211721866
O           0.35369800630481    0.16374969319730   -1.50053092192417
O          -1.06953668448353    2.08292704584028   -1.16725565357062
O           1.30894979272750    2.40077109360816   -1.58274501384908
H           2.12383400968976    1.87805475612059   -1.52462500702312
O          -0.03348914793768   -2.04824478794838    1.54588838585668
H           0.19929041823295   -2.76798374563645    2.13372435878335
O          -1.40527983676781   -1.71967367725264   -0.82904609763376
H          -0.98406112144887   -2.03538436416954   -0.01064952691077
H          -0.73286449334156   -1.13748059542453   -1.23876902430690
O           2.92451829896838    0.19499509544427   -1.54778341249087
H           3.30372657477347   -0.08141509779292   -2.38412184191430
H           1.95865449837185   -0.00517847499573   -1.59410696157276
O           2.11482977945129   -0.58657694858403    1.09322900911125
H           0.81279570933789   -1.57055746507808    1.34643034937412
H           2.69712080185355   -0.61303181797671    0.32620962030908
H           1.59814226757103    0.23954992636977    0.98101642665111
O          -1.24835583007872    0.35139254618268    2.21085582228200
H          -0.56351894396363    0.90397635496081    1.78382463090574
H          -2.29536425441855    0.42143713953672    1.02309051442100
H          -0.88782311317018   -0.55300822883989    2.16963655497275
N          -2.68747641925088    0.39618842152596    0.02997779399655
H          -3.69255497406318    0.52288254466385   -0.00430958384168
H          -2.36865697653709   -0.53507216970829   -0.38172879950968
H          -2.17643909148971    1.15074556353083   -0.50390283640713
