    26
        -50.47395399  Gyration_radius:  2.40833181382 Dipole_moment: 3.051
 S          -0.76952717587972    1.53849636774223   -0.37783373037562
O          -0.01323159651239    1.38655294126712    0.85824965265529
O          -0.28716836340319    0.60039577849158   -1.39872782603475
O          -2.19442133296396    1.41561813285765   -0.16676392966529
O          -0.49079089960015    2.97986702288773   -0.92933747813649
H           0.43587173131844    2.94935113532108   -1.21395699409962
O           1.38837727766425   -2.02273731186885    0.75380078592669
H           2.09511608871479   -2.61604936086681    1.01121915144222
O          -0.70490270620346   -2.00653948353648   -1.04885071239653
H           0.06158497472239   -2.20831651439543   -0.48441010086393
H          -0.53691932710450   -1.09674800278751   -1.36975864786034
O           1.82698757694367    1.95394085156021   -1.95579631645380
H           1.97773187039510    2.07456379950314   -2.89515982634643
H           1.09254671241518    1.29979482717365   -1.86780042119862
O           2.39042352284050    0.38876811523782    0.38396938278437
H           2.62601982517980    0.80889741827433   -0.45037157579472
H           1.56259989487523    0.83698725024188    0.65928504946384
H           1.81865103965202   -1.15092018030944    0.55615129818369
O          -0.44250276535375   -0.76111627550451    2.40646514791749
H           0.23763267560772   -1.32556236251080    1.99601748074394
H          -0.25689591351758    0.13345119469482    2.05713450232505
H          -1.74918203325124   -1.01739355468441    1.54726694202704
N          -2.40263676890105   -1.05333950988419    0.70318669886514
H          -3.30738667727351   -1.45704052069048    0.91734861599932
H          -1.87176994623666   -1.59221930640845   -0.04914632969195
H          -2.48620770414435   -0.05870247178986    0.35781919058580
