    26
        -50.47395394  Gyration_radius:  2.40834112 Dipole_moment: 3.053
 S          -1.53895197024751    0.74808952626694   -0.41496207431028
O          -1.21612427728703   -0.65515115945431   -0.70098964201778
O          -0.78426994225866    1.22484803810922    0.73661869515948
O          -1.35445144507589    1.58847523631097   -1.57670955326545
O          -3.05966500814565    0.78694707968206   -0.03360968918614
H          -3.15601040217329    0.08272351162189    0.62639389731185
O           2.15688747600276   -0.98550839742832    0.98140745790684
H           2.81283941880808   -1.40177602169397    1.54195162450789
O          -2.63058235877188   -1.60068036533874    1.22689868914939
H          -2.03078347543477   -1.42819299174861    0.46162125471654
H          -3.19521028915192   -2.33373245971620    0.97485838504606
O           1.21732528985995   -1.25384027591719   -1.60235699479685
H           1.68484939278764   -1.30822504249672   -0.75070090505897
H           0.27068571146077   -1.20513035757790   -1.35648086196057
O           1.83892078678374    1.72020206413577    0.47742034806883
H           0.89182267384164    1.73230858350057    0.72154589795896
H           2.14071455632235    0.82833158072775    0.72865012800915
H           1.61508430289168    1.64208945728462   -1.08967146544935
O          -0.10564434658315   -0.78137085045265    2.32164984779918
H           1.30873985114733   -0.99472397952443    1.49594277703784
H          -0.37540655006467    0.03684997803293    1.85288516863075
H          -0.87763572515766   -1.35522117160071    2.26920957450854
N           1.21892244167091    1.32982126616711   -2.03106723921265
H           1.32751380699814    0.26859921014988   -2.05136730213583
H           1.65877179893236    1.78976258154138   -2.81999387246756
H           0.18165828283653    1.52450495941660   -1.98914412595856
