    26
        -50.47250255  Gyration_radius:  2.48720498284 Dipole_moment: 2.870
 S          -0.59162347069486    2.18410028414839   -0.15308211015328
O           0.68330129169925    2.51200923919425   -0.76205382183493
O          -1.55261196936320    1.68577391183643   -1.12941346140788
O          -0.47565600768580    1.30168803664569    0.99219680743957
O          -1.17820218487906    3.54816777075994    0.39958747107110
H          -1.06383598490318    4.11557435311229   -0.35496640481923
O           0.82452439770475   -2.22457966676309    1.40125515818605
H           1.30467560231991   -2.81899497440084    1.97803510449888
O          -1.63830555135794   -1.02652876514921    1.71011116740277
H          -0.83445721745495   -1.57562051735838    1.75987638439896
H          -1.31167734221439   -0.10782141041523    1.69974547530850
O           2.03580142113165    0.39880058902669   -1.38592396529949
H           1.50846662171184    1.21623199823088   -1.18638870325845
H           2.63763742446654    0.63905655106321   -2.09191339680635
O           0.54038759585588   -1.88810763764851   -1.31779562509198
H           1.11229149696610   -1.10598026516397   -1.43450227842412
H           0.70044210243585   -2.18927219146697   -0.40523660051849
H          -0.95295930429023   -1.33569746814964   -1.20550943386341
O           1.90123710479322    0.14716296565572    1.38407297688777
H           2.25968229942430    0.22904320857568    0.48815037712316
H           1.08477994810005    0.68600469600993    1.36988028145056
H           1.28348552659054   -1.33691682499927    1.46398656236883
N          -1.86987882980105   -0.89186963841830   -0.90414720879880
H          -1.95101066842117   -1.04050957830618    0.14697009944613
H          -2.65941641559334   -1.27786062555638   -1.40859734231026
H          -1.79707786654264    0.15614597953820   -1.05433751299436
