    26
        -50.47250281  Gyration_radius:  2.48746113059 Dipole_moment: 2.880
 S          -0.71700689566696    0.53390400995841   -2.08443234277973
O          -1.45619750229165    1.58269848478685   -1.39243812292344
O           0.61902441401882    0.96174831065839   -2.45272241040405
O          -0.74180160384361   -0.71901644984292   -1.35422466413831
O          -1.48440943025454    0.26663458246930   -3.44427633014868
H          -1.29668317167023    1.06815504284303   -3.92044400075736
O           0.72153724437770   -1.79536311336032    1.96068384193758
H           1.13422531356451   -2.51500864020301    2.43845601630869
O          -1.83911427308941   -1.52602831327649    0.97709671525208
H          -1.58514402040307   -1.45308083914426    0.03853845353811
H          -1.01880161226055   -1.78162390887381    1.43736355678855
O           2.22531645594725    1.05532196579495   -0.42950564605822
H           2.92648179376916    1.67148307944088   -0.64653850069556
H           1.60760575684510    1.05979981993147   -1.20719540993217
O           1.60372024455151   -1.65821990209465   -0.48640017891644
H           0.76566746929859   -1.43415906481100   -0.93884824340765
H           2.11239508682389   -0.83420634406480   -0.49921012028589
H           1.09389004778199   -1.82149447293873    1.03167249927832
O           0.90745622908971    0.95245681239653    1.96185249238483
H          -0.61792589945342    1.16701150710127    1.54492684214005
H           0.92184351619078   -0.00500987787292    2.14141247674923
H           1.43450737679208    1.06933676310271    1.14875352303014
N          -1.60560788029874    1.08520284070689    1.16216447280909
H          -1.58897169813258    1.35479562363957    0.13594273537360
H          -2.25896849852248    1.66188784443866    1.67930174380403
H          -1.86303847317209    0.05277420921933    1.19807060105985
