    26
        -50.47000356  Gyration_radius:  2.46318957849 Dipole_moment: 2.773
 S           0.24012096967772    2.05368202444598   -0.79573609043797
O           0.48566769620574    1.96614616069648    0.62291077621391
O           1.41686823306253    1.94387195465134   -1.62293279224047
O          -0.83367133430326    1.13042268848863   -1.19670430767041
O          -0.35259798801687    3.50266789005299   -1.09367831183204
H           0.40509761318780    3.93438845362492   -1.47351495237937
O           1.25300156246166   -1.54038370384038    1.56244074042817
H           2.01019147238014   -1.98858100475930    1.94099720298515
O          -0.10801850575969   -1.19142618234968   -2.18866375126881
H          -0.39336126116214   -0.29632033381437   -1.88480242183277
H          -0.19666585087971   -1.19324185436587   -3.14239262876205
O          -0.90900379801281   -2.46449037847423    0.13395351266929
H          -0.63068375832199   -2.23090894157289   -0.76723208319790
H          -0.11944752920958   -2.33833696582394    0.69231284931340
O           2.08334494317471   -0.44997828858605   -0.67100992663990
H           1.59840298111025   -1.04113121070549    0.77479240673349
H           1.52746491683517   -0.91705398907587   -1.31393424136167
H           1.99979988280045    0.49017967058846   -0.91568839875140
O          -0.24910458034750    0.46901219426610    2.67548276975934
H          -1.40255535182187    0.11987198945421    1.68459908538290
H           0.34810074920476   -0.28353715839626    2.51277648327083
H           0.10598596779751    1.18022686394258    2.10520218646704
N          -1.97329036956443   -0.14499232815854    0.81437118049371
H          -1.61480051196360    0.45653395002651    0.02669357442633
H          -2.96908945581162   -0.01980832396968    0.95167026768879
H          -1.72175668190326   -1.14681319663408    0.56808688999134
