    26
        -50.47250307  Gyration_radius:  2.48717729814 Dipole_moment: 2.889
 S           0.34771845335312    2.23213181116734   -0.20011960754051
O           0.98239921435171    2.04102307016306   -1.49015625913846
O          -1.10512995651619    2.28619674660406   -0.30788539974338
O           0.78248904742918    1.28058273638757    0.80439250369929
O           0.81228726246981    3.65692638723400    0.31351801933269
H           0.62543369895331    4.19600324972229   -0.44737556031842
O           0.55642974256630   -2.48479363031511    1.05290490338876
H           1.00638347134992   -3.27987128098959    1.33901975548496
O           0.72249567993039   -0.37956425073073   -2.35962297068267
H           0.79550936202655    0.56228305260487   -2.05322406472668
H           0.80223186416520   -0.35299842847223   -3.31423512313377
O          -1.16295584059091   -1.80427302130472   -0.98751383621011
H          -0.61457080639371   -2.22914290429040   -0.30340442620456
H          -0.53333035304815   -1.33353638068354   -1.56592070664206
O           2.21583940809543   -0.80631608075681   -0.04857277874747
H           1.25840437947733   -1.88673856340685    0.66277502017973
H           1.95107852144756   -0.80188340263489   -0.98009883259451
H           1.85240786653596    0.02749791723935    0.31178539470941
O          -0.48889276916373   -0.38730544685806    2.50404462005797
H           0.08846537540170    0.30141569984370    2.12570053406212
H          -1.66258111563563   -0.12033144872098    1.45839450262584
H          -0.11757387779253   -1.22835182116540    2.18030881696298
N          -2.18882922433927    0.07759801492952    0.55433787658724
H          -1.91085047367241   -0.68294616615508   -0.13350327928266
H          -1.82292149473784    1.00486354995500    0.19054151932375
H          -3.19193744578900    0.11153060047025    0.69390937865006
