    26
        -50.47250297  Gyration_radius:  2.48717924864 Dipole_moment: 2.889
 S          -1.57541488079779    1.62378874829006   -0.15506390957070
O          -1.03306600622779    2.06004645324144   -1.42749241945151
O          -2.48969465583530    0.49848038906217   -0.30716869283738
O          -0.56011284333629    1.36641211401072    0.84815478747908
O          -2.43991891948586    2.83250676854557    0.39396318944466
H          -2.97898056172566    3.03156282972626   -0.36383173991560
O           2.31491947281410   -1.08034212169975    1.03287050313158
H           3.21814814893365   -1.20518237109400    1.32456587796853
O           0.75173376460035    0.42901084644180   -2.34249663987664
H           0.78055756847743    0.53762569103605   -3.29418035201822
H           0.04083680781700    1.04247201149703   -2.01916313805987
O           0.75288154448277   -1.97847026852799   -1.05064965679542
H           1.41755103568900   -1.81855432472624   -0.35660662026256
H           0.75779705111499   -1.17285727309581   -1.60172692015953
O           1.97452162857563    1.28990278425984    0.00745344953124
H           1.81886825435759    1.11317844426216   -0.93182089532774
H           1.08688259410306    1.48689244296618    0.36871538745931
H           2.25999117612712   -0.14767402038279    0.67289174259862
O           0.00022881277648   -0.70849297879239    2.48139960317036
H          -0.91012546886126   -1.45063297228996    1.40380220465263
H           0.89794717439327   -0.90479049063427    2.15614678474007
H          -0.20206481154746    0.17922234413039    2.13234054110740
N          -1.37835170476000   -1.72205680004533    0.48685245976299
H          -2.00816476775435   -2.50841151900199    0.59559162531084
H          -0.59864733298660   -1.93262189184945   -0.20339897213033
H          -1.89832308094953   -0.86101480528119    0.14885180996505
