    26
        -50.47250307  Gyration_radius:  2.48719924593 Dipole_moment: 2.887
 S          -0.70525936168523    2.15360643528101    0.08698065509394
O          -0.04994139353335    2.44377626870490   -1.17390434764144
O          -2.02349374120879    1.56134745238401   -0.10520541228757
O           0.11216790371193    1.37484678927733    0.99741713704064
O          -0.94103641743691    3.55159811234186    0.79392264824573
H          -1.35176968646604    4.04500095181240    0.09226634951413
O           1.62337367588383   -2.08330360179136    0.78630977920493
H           2.38492112577251   -2.61960526340909    1.00748245532856
O           0.82206451666845    0.30651525387135   -2.33783450992572
H           0.88230435917266    0.49338621316982   -3.27581039726412
H           0.45796179644536    1.12972245106115   -1.91829049464217
O          -0.21155539891362   -1.98441357487460   -1.26530283286830
H           0.46818936251128   -2.20425080021310   -0.60291049974951
H           0.13656930723511   -1.20769998927058   -1.74291049138097
O           2.34037523565207    0.29303622879735   -0.00346609747559
H           1.63625505252560    0.81692219083784    0.42892693502769
H           1.97741557560553   -1.18717435672522    0.51398497437155
H           2.10538947821881    0.30247792499176   -0.94287790306311
O          -0.26615779348224   -0.89750669792189    2.40465722520613
H          -0.06437515430722    0.02125084575821    2.14781809885072
H          -1.42963819163319   -1.05051342942765    1.32555153610467
H           0.44806202959743   -1.42909370475092    2.00784235397717
N          -1.98580456199075   -0.99183845388971    0.41957750729869
H          -1.39028473176112   -1.44573294519559   -0.33410860693516
H          -2.08085514120430    0.04024086878776    0.19176205363355
H          -2.89487782550922   -1.43259518969411    0.49812188433377
