    26
        -50.47250298  Gyration_radius:  2.48715446775 Dipole_moment: 2.887
 S          -0.16330411106999    1.96563935246724   -1.11890876498057
O           1.26647552436525    1.97249011869344   -1.36204585628083
O          -0.88134443515707    1.16240519104637   -2.10108601513481
O          -0.51663195374680    1.60423700676611    0.24052536881113
O          -0.65211761834391    3.45931346913724   -1.31799092911933
H          -0.26604224115718    3.66780291449964   -2.16173204214859
O           0.02744223908188   -1.51839284622676    2.29931034354472
H           0.22257620394410   -1.85414103204254    3.17434483487891
O           0.57751502304590   -2.27281861854746   -0.29220607544878
H           0.42360418802123   -2.19526145482056    0.66661432552153
H           1.27850719322956   -1.62407275484189   -0.49327204790372
O           2.38317466347803   -0.26287241930213   -0.69885709989948
H           1.95912316596141    0.58584222492051   -0.99219320535222
H           3.18749962480927   -0.34688855383355   -1.21300940971341
O          -2.19514870241881   -0.20024212942825    1.34199765402674
H          -2.05395188753216   -0.81864300076452   -0.12035273641143
H          -1.53728433611462   -0.71614890239080    1.84328971061251
H          -1.73460222258277    0.62571167775316    1.10431461633817
O           1.43410537934514    0.60919029979771    1.77040223062343
H           0.75322283298216    1.12915561568108    1.29787445346718
H           0.58740777388722   -0.69700582016884    2.17978692076713
H           2.04003520095614    0.31613076822918    1.07422475815346
N          -1.65822689580264   -1.10129784230070   -1.06755460356091
H          -0.77717193819435   -1.66286829717422   -0.87501230686177
H          -1.37915938101389   -0.20204539995521   -1.55699314306236
H          -2.32570326989595   -1.62521956719450   -1.62147099103108
