    26
        -50.47250300  Gyration_radius:  2.48715643975 Dipole_moment: 2.890
 S          -1.78054310057178   -0.89032729071523   -1.08603883578056
O          -2.55207681368021   -0.13054909482902   -0.10991478040667
O          -1.47923292857404   -0.10809924619953   -2.26961460695353
O          -0.61266252722553   -1.51078764225143   -0.49066534522240
O          -2.71227902688030   -2.07786773717502   -1.56715077848188
H          -3.37177455641340   -1.60437949960749   -2.06246106960700
O           2.55574887391566   -0.11260334420131    1.02412671768368
H           3.49907845184202   -0.24188080075047    1.12357105615941
O           0.36190268826711    1.65393573658691   -1.83563819592386
H           0.24715896527785    2.35503376857921   -2.47878382451618
H          -0.37237118786563    1.00668114083483   -2.00340809747531
O           0.85367169686178    2.04342670621776    0.82371871460060
H           1.58035013102574    1.41220286679293    0.97410971385592
H           0.67786359713554    2.00903397838825   -0.13575398392074
O           0.43267401836668   -1.57561715079572    1.99747862844111
H           1.29524808093522   -1.16767635932439    1.79815335306026
H          -0.51227582491950   -0.29879360828607    2.13374686519951
H           0.07018400971787   -1.82793353174524    1.12816283737929
O           1.77147950383164   -0.70599043948604   -1.38779335616604
H           2.33071273937781   -0.37877522409793    0.08545911569808
H           0.92353474375935   -1.14279783341350   -1.17003371520522
H           1.51325047695080    0.14926406939369   -1.76140295134697
N          -1.06204257307189    0.58411245587791    1.90627845799065
H          -1.56286918025898    0.94226627083497    2.71110687198611
H          -1.73135708220659    0.32805935710236    1.12365054599392
H          -0.36337315554025    1.29006244229143    1.52909665316426
