    26
        -50.47250308  Gyration_radius:  2.48723834314 Dipole_moment: 2.888
 S          -0.67589269857274    2.13635025634894    0.35029608635074
O           0.74382646570419    2.37871608188877    0.57614821115008
O          -1.03601983200174    2.27571622836774   -1.04770237211598
O          -1.11291140986800    0.88432180678635    0.93763803838379
O          -1.45414114095194    3.27985622306957    1.12263432406223
H          -1.23099487857700    4.04048511968025    0.59717227363385
O          -0.30751743248031   -2.73191972206291    0.18737676339625
H          -0.66228530740013   -3.62001525144197    0.14389601910317
O           1.60071842370667   -1.28387148114672   -1.17193158063251
H           1.01077363616153   -0.73218296819887   -1.71985341287028
H           1.02143566551042   -1.95287874056685   -0.76455520362246
O          -0.22943528409432    0.27429496450634   -2.47152887382915
H          -0.51049474368030    1.06569108894041   -1.94145037758221
H          -0.14445025295439    0.57969326769634   -3.37585397720771
O           0.10649055924541   -1.06916571362033    2.34594065558938
H          -0.50365869283003   -0.36571644492242    2.05658190585993
H          -0.05756420000247   -1.80841408197152    1.73213073331998
H           1.38171663006994   -0.37302834908441    1.69006876613217
O          -2.00770702898349   -0.99089204044899   -0.74172731267799
H          -1.59058282593876   -0.67659306784325   -1.55721446968880
H          -1.02098860998788   -2.12443363430724   -0.16536257116004
H          -1.85659635131409   -0.27030670545506   -0.09742863878842
N           2.01588224042317    0.14487381712451    1.00941991652438
H           1.99187514917464   -0.39793960842373    0.09645335583957
H           2.95984570094873    0.24436126964643    1.36420715329148
H           1.56867622883561    1.09299767529897    0.84464460760066
