    26
        -50.47001091  Gyration_radius:  2.46310397444 Dipole_moment: 2.616
 S          -1.54225263397471    1.56792948559779    0.27485765502310
O          -2.50472096082425    0.92616044233913    1.13562489473578
O          -0.29339331546373    1.90152535145210    0.91822314104051
O          -1.31067350970246    0.84113294318273   -0.98170895917091
O          -2.21624703407427    2.93461788717060   -0.19061999376520
H          -2.71925914309680    3.16851384127431    0.58215947159877
O           1.69125277516106   -1.21079547640741    1.42741432974801
H           2.02846698543447   -1.67935334204335    2.19179589734144
O          -1.50857750203376   -1.77958262049840   -0.91629982392154
H          -2.34870821309929   -2.06558578298208   -1.27678461091289
H          -1.50408945428954   -0.79412887124297   -0.97118772174883
O           1.23888200663142   -2.00939028192292   -1.16649242044470
H           1.51530196584467   -1.90004357864633   -0.23767556014889
H           0.27808178909944   -2.15095340353005   -1.13751260290339
O           2.27368608737937    1.34530064535541    0.61679827735684
H           2.27503641962702    0.46265895991128    1.02966251607115
H           1.78317633240880    0.97562292241421   -0.81611194277376
H           1.41244565024597    1.72873543815175    0.88020417891803
O          -0.91176936508928   -1.12293915131514    1.70510330464294
H          -1.46475352464428   -0.31962565754279    1.68461157972757
H          -1.19197879834001   -1.62885927902079    0.92663437654473
H           0.71786032812740   -1.08865626770196    1.59116270919250
N           1.22964449535993    0.58688814518226   -1.65054853062225
H           0.21551368849303    0.80157155099664   -1.46123510699772
H           1.32428013715290   -0.47042725357081   -1.62436160315786
H           1.53279477347728    0.97968337294395   -2.53371344445840
