    26
        -50.47000803  Gyration_radius:  2.46298492468 Dipole_moment: 2.577
 S          -0.14786230258375    1.95075501090900   -1.04294431038606
O          -0.47938541461324    2.05064176515187    0.35930559193818
O           1.22769379647110    2.25233021947709   -1.35170957888760
O          -0.60312434061164    0.67183050392494   -1.60564241640013
O          -1.02195630091819    3.03807526979554   -1.81222058981633
H          -0.49145612726740    3.81981952055679   -1.70143129230058
O           0.96016999171378   -0.88661011907875    2.15693795788442
H           1.60369559928854   -1.00165818792696    2.85706367440338
O          -0.01713968662266   -2.62084999070530    0.25790974157276
H           0.50370027316348   -2.34303349623645   -0.51367572064732
H           0.39503293047197   -2.18055087835105    1.02434614260493
O           1.18059545328756   -1.24766827158277   -1.82766570745192
H           1.49632867737024   -1.31500807506420   -2.72948483082199
H           0.52065410738639   -0.51390814959450   -1.81930530149133
O           2.20451475896816    0.33111288862065    0.20093606542490
H           1.92228501740116    1.15854964063602   -0.23199014103117
H           1.40891384357384   -0.33241258830225    1.46340372843420
H           2.13982487640482   -0.33972421950426   -0.49649591002019
O          -1.42430139413519    0.46746835783469    2.25404404402162
H          -1.12528204618424    1.22977799061101    1.71745618433726
H          -1.90805837325668   -0.34478099950513    1.01484630827315
H          -0.60187724176605   -0.01190435170205    2.46216932409069
N          -1.96504048773500   -0.84758914460741    0.06725966443691
H          -1.32118134659556   -1.69031608938555    0.12017355662045
H          -1.54303039094606   -0.19272023684012   -0.64241581872019
H          -2.91371387196353   -1.10162636941614   -0.18087036620167
