    26
        -50.47000432  Gyration_radius:  2.46317266268 Dipole_moment: 2.760
 S          -0.56744012673389    2.07103652146836   -0.54455359672816
O          -0.38414140420285    1.89291115844854    0.87514615567884
O           0.59614505040073    2.54978748261001   -1.25016009621678
O          -1.15302633264833    0.86452990322955   -1.15048434231186
O          -1.67910267018753    3.19426838666053   -0.74931330639639
H          -1.14079110979900    3.94319536141734   -0.98194770214627
O           1.68286545373145   -1.12339115705947    1.51130795754115
H           2.53511133832041   -1.28545191157211    1.91745562346922
O           0.15713566749294   -2.61633121275874   -0.22414936970082
H           0.36496927434765   -2.16962561070633   -1.06163596348378
H           0.79772796605289   -2.26824926954681    0.42363278656964
O           0.49955013631486   -0.82179510787234   -2.30252907262030
H           0.46940983798201   -0.72566460277117   -3.25509108589327
H          -0.13849083941931   -0.16301555664001   -1.93673975036883
O           2.12088248382759    0.50442744107951   -0.49473069301728
H           1.67785001858617    1.35982923413310   -0.64583445671690
H           1.83922694318184   -0.42452423024931    0.82123162207578
H           1.83612071511442   -0.04953485984048   -1.23804375622580
O          -0.55908310514320   -0.04292722343846    2.66851585940261
H          -1.41913827102888   -0.67739318982018    1.53199341659755
H           0.29895244439308   -0.46887423852871    2.48991048521717
H          -0.49193816604412    0.82228675679848    2.21668962422576
N          -1.78725041892011   -1.02203331882624    0.58385805754297
H          -1.66074585792793   -0.22494068202437   -0.09393374415022
H          -2.75464543832990   -1.31916684448686    0.62904351171120
H          -1.14015359936136   -1.79935321966726    0.26036183593667
