    26
        -50.47229291  Gyration_radius:  2.48017915277 Dipole_moment: 1.992
 S          -0.33915203060757    1.42950268406776   -1.74201744035049
O           0.53218331131925    1.55525645529673   -0.57744353112347
O           0.19759937030841    0.50158861921026   -2.71843001405149
O          -1.70910495824855    1.15489070477328   -1.35972499369100
O          -0.35074895636775    2.84587967439475   -2.45291825064516
H           0.45566354637849    2.80973615406879   -2.95623596759075
O           1.40339660723272   -0.96914634355459    2.13321043261181
H           2.11431711872713   -1.29370372651797    2.68616979444823
O           0.10639109622006    1.46817646878582    2.07866253950477
H           0.36983848939255    1.70627086079848    1.16872633221631
H           0.63477472186963    0.67792736634078    2.29185558640137
O           0.17984234269525   -1.83999144212025   -1.61266729861056
H          -0.04778082347144   -2.48432788702150   -2.28474117253694
H           0.13896594667077   -0.95602604452033   -2.05964604667913
O           2.23337356119637   -0.46921710153037   -0.28578750966213
H           1.79913011099647   -1.13800517810738   -0.83287552780064
H           1.72460686997288    0.35192455688743   -0.45141167396352
H           1.80392777991275   -0.78607695159445    1.23481565861422
O          -0.81732779127287   -2.06360132349404    0.92899764893248
H          -0.50173423632112   -2.06973333785665    0.00545993414107
H          -0.03698883033630   -1.83839819104413    1.46707984740313
H          -1.67853468546421   -0.72753721496953    1.05043613099365
N          -2.01108618482260    0.28155966645674    1.08327156859777
H          -1.28147919568967    0.82940893284676    1.63289229408667
H          -2.94011004672270    0.36596365557236    1.47844947439163
H          -1.97996313355917    0.65767895283069    0.09387219436120
