    26
        -50.47229284  Gyration_radius:  2.48030953557 Dipole_moment: 1.994
 S           1.81017163486104   -1.38333369414471   -0.06697349747756
O           1.72401166186557    0.04122510772382    0.24054827572117
O           1.33092863386996   -2.20118869676642    1.03022319575963
O           1.19992211996873   -1.69414147450721   -1.34341577173359
O           3.35137926144194   -1.72077459072938   -0.21662259296633
H           3.61132204305727   -1.81811690090939    0.69326033348023
O          -1.31240055762073    2.28051223817701    0.73276491211325
H          -1.66098963670386    3.00624966103493    1.25067552385802
O           0.75985560969330    2.17323720186798   -1.08967650685233
H           0.04724463884309    2.42635696104443   -0.47548514788914
H           1.30579573373009    1.53639894750411   -0.58926816699502
O          -1.20065835249259   -1.71691068758307    1.27844624562411
H          -1.63900995182708   -2.53778593228554    1.50813405539280
H          -0.24407655772155   -1.94582793113013    1.15401310521504
O           0.03723212856563    0.61628431096681    2.21566564890563
H           0.76714234483151    0.41951939788065    1.59198644563798
H          -0.79694756476916    1.70211332331371    1.36588692528722
H          -0.49851190641269   -0.18872671181843    2.22349989425486
O          -2.35701343261496    0.03898806374769   -0.47708661253100
H          -2.17385571283500    0.89475974410986   -0.04895998022153
H          -1.29363719350399    0.04818322451426   -1.66473338605408
H          -2.02671269184658   -0.63714264282117    0.14444408917889
N          -0.41729026943663    0.14110793698396   -2.25916731256010
H          -0.62164352697559    0.10476530988326   -3.25081501888547
H           0.24232694102585   -0.63716020948257   -1.97524535198586
H           0.05541461297355    1.05140806338947   -1.97209932430888
