    26
        -50.47229283  Gyration_radius:  2.48011041217 Dipole_moment: 1.991
 S           0.83004499552652    1.31087271916586   -1.66888244379478
O          -0.27846239985513    2.24334490941577   -1.60473985580915
O           1.37037852028879    1.01898659764982   -0.34447143060777
O           0.53872085972706    0.09972074775798   -2.40816051862271
O           1.97607694567207    2.05661934953117   -2.47021195449903
H           1.88075874259736    2.94700269542065   -2.14915777604969
O          -0.17267443362768   -0.84622389144731    2.59125285234438
H          -0.25246006941802   -0.85342843498823    3.54524925172383
O           2.00386996113538   -1.25849231852982    0.94237725579286
H           1.99713025310136   -0.36998413144065    0.53672289093418
H           1.36498089504646   -1.20196631639784    1.67569637175933
O          -2.19578624271883    1.03507129333196   -0.35165337141671
H          -3.02458356715029    1.28955747096622   -0.76030157337671
H          -1.48516048382820    1.48283203314858   -0.87830516029108
O          -1.78348020388385   -1.54530888340928    0.47088425706725
H          -1.33648291361818   -1.41067628986716    1.32600243036473
H          -2.02111189827103   -0.65135254753909    0.15953905127113
H          -0.56231192015464   -1.98159042325712   -0.45648424381332
O          -0.30460922306932    1.57821367866712    1.64510024507858
H          -0.21429406234447    0.11320291152625    2.31047692044435
H           0.37946174182717    1.50355776762546    0.94721376717373
H          -1.14199602243809    1.60371891657335    1.16216059909783
N           0.37520654820587   -2.06180040519034   -0.95102878927112
H           1.12790713139097   -1.91799621976152   -0.21124864388876
H           0.45358405693860   -1.24151076099253   -1.61613776954634
H           0.47529279891080   -2.94237047795902   -1.44189236205453
