    26
        -50.47229324  Gyration_radius:  2.4121070801 Dipole_moment: 3.397
 S           1.71054912362247    0.25466130254067    0.21461699585386
O           1.18059993413950    0.24063123373109   -1.13922335381148
O           1.96301761964920    1.60724660449637    0.68030151460536
O           0.91510098981411   -0.52325485057792    1.13997925536543
O           3.12417513903379   -0.47154665618374    0.15078534482717
H           3.68242774301204    0.19545946269667   -0.23514373689943
O          -2.42292222475699   -0.60491751998978   -0.61893559848917
H          -3.22372880589668   -1.04626869729435   -0.90406188664996
O           1.33816964260106   -3.02912864755281    0.33670939801310
H           1.18885079132234   -2.17239126630318    0.77896745990408
H           2.27049706559764   -3.04523144507567    0.11407478272532
O          -1.10042968302120    1.61399932447306   -1.56538279650701
H          -0.23439405318768    1.16982832844762   -1.64479614590681
H          -1.72795027152719    0.89309133352113   -1.36943825841095
O          -1.56239614543342    0.21537083980525    1.84669392131680
H          -0.69222770053862   -0.22281484061978    1.81148849962768
H          -1.02874061993848    1.63102546904194    1.40286308241837
H          -2.03547631688447   -0.12458360690528    1.06349490395044
O          -0.35834452141008   -1.92616286667827   -1.50532187704436
H           0.25048444113062   -1.16378016570165   -1.52055718372971
H           0.07149948438412   -2.56354732318870   -0.90768387456431
H          -1.66531182599425   -1.17994627386903   -0.93037771452454
N          -0.53956395456214    2.41246280079061    0.85825879793662
H          -0.84280940743998    2.28682621911752   -0.15926543667289
H           0.49563524757143    2.21868080297555    0.88143264296272
H          -0.75671167130156    3.33429041830017    1.22052125370359
