    26
        -50.47417034  Gyration_radius:  2.4208367483 Dipole_moment: 2.001
 S           0.26608492086680    1.88311861878291    0.62329619124799
O           0.02703606339295    2.18747131658058   -0.77911996872974
O          -0.91286727155868    1.33943135676036    1.27064047940840
O           1.44321853450467    1.05884136162627    0.83988003369900
O           0.58670083170229    3.27476353659059    1.30683580552965
H           0.06010765809835    3.87025124626677    0.78519319887937
O           1.55381627678459   -1.49485838988324    1.40765748654376
H           2.34525349565816   -1.65640499154890    1.92304323810753
O          -2.25120704631499    0.95085771457671   -1.08457031102790
H          -1.40973085782329    1.45462878590276   -1.15548400112427
H          -2.50970593146171    1.10002128353729   -0.16740697162616
O           1.04939600396490   -1.92580368724483   -1.28868490512001
H           1.35104735959578   -1.99378986145530   -0.36696630834748
H           1.44417370243934   -1.08466893257235   -1.61611534532594
O           1.98826268573541    0.53235825017798   -1.72259590029203
H           1.34424229130052    1.15944276621917   -2.06815054061600
H           2.01559023123848    0.74459976189984   -0.77180495881676
H           1.53328168175199   -0.52265361748460    1.23729223207641
O          -1.15577689285581   -1.25716319819220    1.80116641194793
H          -1.13034953233693   -0.27701263933903    1.75868752188447
H          -1.46939916038895   -1.57980877310831    0.28205349376684
H          -0.22616239121465   -1.52462074640223    1.88995935180554
N          -1.49969346647761   -1.58102347562876   -0.78479297942860
H          -2.12294637893036   -2.29626248858482   -1.14132105910453
H          -0.49513373171321   -1.74582618840185   -1.11307078125771
H          -1.82523911568975   -0.61588900928697   -1.06562141404597
