    26
        -50.47417166  Gyration_radius:  2.4209771653 Dipole_moment: 1.955
 S           0.41937377413344    1.94584248213626   -0.21980094288902
O          -1.00916212257403    1.79508945845126   -0.01781704834019
O           1.17051506260787    1.73803851316420    1.00878164911776
O           0.90503632669805    1.14586701552443   -1.33176248197568
O           0.68834318273014    3.45266580650349   -0.62520849103109
H           0.82218407854835    3.85810431752622    0.22434322876872
O          -0.15223432970515   -1.01773668837851   -2.35976975213723
H           0.08268086566004   -1.05738105885848   -3.28788815500614
O           0.93314130879056   -2.35964453881389   -0.18586371344718
H           1.68441445931910   -1.74132720634358   -0.03179420743400
H           0.58942786492231   -2.11177131381456   -1.06096350459946
O          -0.72683697272895    0.70360353436498    2.47309671541660
H           0.09902075603482    1.06049405853671    2.07665432296630
H          -1.41280238215339    1.20316610212958    2.01464486254672
O          -2.32175093349549   -0.38645972299832   -0.79386979023833
H          -1.75528064014429   -1.21210963661474    0.43452942746467
H          -1.96941872369937    0.50175884693960   -0.57054735381954
H          -1.76973002453567   -0.69275482035952   -1.53200694988344
O           2.65897045236211   -0.33822183374468    0.03204154509032
H           2.18257419686539    0.20566393920212   -0.62142166165159
H           2.58573307687001    0.17797931902367    0.84166199142426
H           0.23855991342938   -0.17911207799346   -2.01525529761342
N          -1.14584747433150   -1.60240552376933    1.21878588933114
H          -0.25879118033066   -1.97575044578597    0.75164928084452
H          -1.62230286782049   -2.33253675181110    1.73553167455016
H          -0.91581766750354   -0.78106177413486    1.84224876238441
