    26
        -50.47399125  Gyration_radius:  2.38940475602 Dipole_moment: 4.402
 S          -1.41128794605474    0.15089435133396    0.21768828412119
O          -2.44607668023765    0.06842544738457    1.36600748985786
O          -0.47608197180630   -0.97227708009298    0.38776547661151
O          -2.09948889172982    0.10349621611366   -1.04132307950850
O          -0.67586266073268    1.42038256060602    0.38801344778548
O           2.13913379240046   -0.33205001665299    0.36063604638944
H           1.26685411432524   -0.77252713179954    0.37850562748914
H           2.15004677337528    0.21408418685446    1.15883633859221
O          -0.28271611522131   -2.51653355689891   -1.79891294735086
H          -1.11088707659945   -2.99098135509708   -1.88943421935148
H          -0.34623025824454   -2.02318956515854   -0.95700613073358
O           1.04095306064678    1.35676468713880    2.34028238376128
H           0.37472445115913    1.44448663072253    1.61164633404144
H           1.05044816871864    2.19648784882366    2.80179491923159
O          -0.40119314240295   -0.17127451788849   -3.07205968242473
H           0.61173330520470    0.65363690049550   -2.27008535625795
H          -0.21067234479491   -1.11120769953824   -2.86433639359560
H          -1.19275888533419    0.01576202429342   -2.52596031622911
O          -0.62314171320239   -0.69797078521544    3.05397112888368
H          -0.36833488998772   -1.25224463915222    2.30246530744717
H           0.04180390241999    0.01423898442571    3.07665056179203
H          -1.90147537593212   -0.17833733268128    2.15730041144019
N           1.12402531357693    1.22941662548870   -1.51035975437618
H           1.75753967147947    0.60661583479372   -0.93786444771644
H           0.37406665555853    1.51942032163752   -0.82999889983951
H           1.61487874342061    2.02448106007239   -1.90422255006489
