    26
        -50.47416921  Gyration_radius:  2.42074633396 Dipole_moment: 2.035
 S          -0.30692891645009   -1.93557183290052    0.40542787494595
O          -0.75697874984507   -1.40641958031484    1.68354194291330
O          -1.18250263240318   -1.54430761026577   -0.68330393735862
O           1.08861006091960   -1.64583211338568    0.12269801171258
O          -0.39541096625875   -3.51005496269366    0.54534539188053
H          -1.15112990001115   -3.61093646561486    1.11338795145169
O           2.07768822306822    0.14171900123577   -1.51500246927700
H           2.92267165260791   -0.17628847110227   -1.83597467911300
O           1.49928536045829    2.00283190501749    0.46237224424410
H           1.88836636748958    1.51356960437783   -0.28223960349360
H           1.56738089940539    1.38428012099893    1.22618115163070
O          -2.52651844059376    0.30659191603434    0.82031560330175
H          -1.90501789621112   -0.27063809375535    1.31802928171977
H          -2.73421249362589   -0.22719012827795    0.04435359866141
O          -0.51524256580704    0.38091570246545   -2.39506893280147
H           0.45476747242452    0.33631441375463   -2.37041254726457
H          -0.81441815842113   -0.41109634999683   -1.89872037173257
H          -0.84189563465419    1.50378667795043   -1.32595517593591
O           1.54411888541321   -0.02260491825176    2.19644312566603
H           0.70278599526638   -0.20948707119779    2.62619052787976
H           1.58594981008375   -0.69338074217216    1.49082742344457
H           1.72580429008516   -0.56740640257318   -0.92511829551246
N          -0.96623558912081    2.06177596219504   -0.42475607092601
H          -1.61283082518263    1.48826316174850    0.18289280069137
H          -1.35134250920457    2.98196152890418   -0.60373023087820
H           0.00323626078827    2.12920474775994    0.02227538463966
