    26
        -50.46983301  Gyration_radius:  2.4323935067 Dipole_moment: 4.331
 S           1.27856065904838    1.57388903008938   -0.34841459389093
O           1.14835418041720    1.93601170466793    1.04680003278413
O           1.98035209309041    0.34056779564852   -0.59738768212358
O          -0.02881860975482    1.59739574130798   -1.02470913997160
O           2.12938684212189    2.72869661449063   -1.02021553477316
H           1.86864085863304    3.48884989549596   -0.51077430625609
O          -0.30898468318462   -1.50558902946303    1.42053356227654
H           0.53502089789881   -1.28491303465441    1.86607265798683
O          -2.90343941090826   -1.05072954614324   -0.07585429716116
H          -2.74511152222320   -0.22823509743592    0.41308233288473
H          -2.49785894048965   -1.74388238861291    0.45622048333928
O           2.02036425754344   -0.35889904478603    2.13215767621916
H           1.73109284360771    0.54026198705015    1.88865054831647
H           2.62398314182483   -0.61155163849373    1.42823273916258
O           0.82232754155390   -2.03955575067744   -0.93972714660648
H          -0.29605473532431   -1.33749272821402   -1.69723111598151
H           1.44639474845134   -1.28829664881429   -0.89460073033242
H           0.42232542616224   -2.06645175013751   -0.03888875704335
O          -1.46868823150913    0.99600982775089    1.09945380085585
H          -1.06415231806119    1.47651063953453    1.82685159323699
H          -0.98506762522514    1.30900779492528    0.30529371317389
H          -0.76270959669014   -0.64657397185720    1.35565857760750
N          -1.06782039697880   -0.63360248274921   -1.99139182280667
H          -1.90419583017249   -0.81081004131129   -1.37982003949074
H          -1.29861587438983   -0.69166553370604   -2.97618854580748
H          -0.67528573545901    0.31104763607969   -1.74380401556357
