    26
        -50.46999265  Gyration_radius:  2.46213291676 Dipole_moment: 3.140
 S           0.06153616185351    2.20081649002719   -0.23169396520034
O           1.33371104360631    2.42236423224363   -0.87522556520879
O          -0.81946924072235    1.31667654166758   -1.01759442122745
O           0.12646203698390    1.76178584670054    1.13829057142336
O          -0.66644082487361    3.61799101559448   -0.24704020828509
H          -0.02569676481478    4.14434440806641   -0.71326025997742
O           1.23400853388556   -1.74916140651576    1.35451148560949
H           1.98826822978417   -2.19828435326457    1.73787106404428
O          -0.56525385107874   -2.49390041941425   -0.58911505268510
H           0.11617923774004   -2.43480735007221    0.10602788305249
H          -0.20248500329408   -2.01296505799742   -1.35132670532662
O           0.35639547559213   -0.59518044758607   -2.37805877175764
H           0.41160715049785   -0.36011708236249   -3.30494496103117
H          -0.09254578561083    0.15989613743570   -1.92589033031937
O           2.20124992805654   -0.05121114549043   -0.39320727294994
H           1.80138500617490   -0.39417944216565   -1.20774619483804
H           2.02308639144163    0.90649312713876   -0.42076138737545
H           1.60973223813057   -1.03317944977007    0.77585674990993
O          -0.67261937912549   -0.25841877981202    2.64965485852875
H          -0.34321804518523    0.60671844458337    2.33562741049555
H          -1.61655606127942   -0.44760964944671    1.41907238915839
H           0.03910754487826   -0.88062297710187    2.41318502121505
N          -2.01966938219284   -0.53771782098763    0.42845274267779
H          -1.60161558292948   -1.41449516200726   -0.00047754698096
H          -1.64456072203202    0.27678758839600   -0.12614517015996
H          -3.03259832550925   -0.55202325784965    0.42393762721681
