    26
        -50.46983302  Gyration_radius:  2.43233619911 Dipole_moment: 4.333
 S          -1.46680338357438    1.43784461220982   -0.11457168154269
O          -2.42808632339033    0.38095866826983   -0.34636371635312
O          -0.89230337695520    1.46369831459128    1.20630389622451
O          -0.42645692174768    1.44316450896224   -1.15627296167477
O          -2.26096129580664    2.79643595505277   -0.29530640066907
H          -2.90472555320966    2.56362030724139   -0.95611006887238
O           0.31433066861843   -1.87567743753710    0.87323765607914
H          -0.51372662391657   -1.79490888619791    1.39030627175877
O          -2.02058230371873   -1.02159807069398    1.90572216296044
H          -1.76586500021789   -0.28593557577986    2.46931764441623
H          -2.31090738915247   -0.59842237922241    1.07621174348266
O           2.20503242443274   -1.58071656075751   -1.47535621800876
H           2.13865389988184   -2.11127655129232   -0.67399762066914
H           1.31688447860904   -1.59488610870971   -1.86481483348184
O           1.42446087344356    0.32999620719427    1.89294184585150
H           1.97849188495731    0.74490440275758    0.53695277577165
H           0.59666464382400    0.84938601562866    1.86453921101879
H           1.13294465835516   -0.58756266925652    1.68028764599375
O          -0.51410954478531   -1.14006735080943   -1.67237149784926
H          -0.51004803021555   -0.16348638176846   -1.57850595263076
H           0.03206366447202   -1.68403823739441   -0.03865602199393
H          -1.44469559817992   -1.37709803836010   -1.63442806200474
N           2.08955504072839    0.92901679669967   -0.52668876705490
H           2.28293007482224    0.00397244631646   -0.98703788380092
H           2.80661712503767    1.61385310285435   -0.73468081935077
H           1.14064193766555    1.25882289018202   -0.84065835756474
