    26
        -50.46999185  Gyration_radius:  2.46213715765 Dipole_moment: 3.158
 S           1.81047663647223    0.21622818336506    1.25575299386645
O           0.64045988234487   -0.59864539328383    1.63396199528671
O           2.79933140274842   -0.54554173856467    0.53228756161305
O           1.39078395597935    1.44349386772713    0.63020673938022
O           2.50547438486825    0.59623290183065    2.63816363257966
H           3.34021454552662    0.14879438389437    2.54911482118151
O          -0.76303780483494    0.77750169047878   -2.28702832591906
H          -0.69951269907177    0.94912789259752   -3.22729992698511
O          -0.07428720449767   -2.47544707806079   -0.05579195848226
H           0.22376288801515   -1.81883035446878    0.61958704519611
H           0.21971992793755   -3.33294388670953    0.25358288138594
O          -2.28071686683404   -0.99731746990390   -0.83156681611873
H          -1.62011878263706   -1.68969099253626   -0.66394448611796
H          -1.88094619156279   -0.41043348776292   -1.49994043383738
O           1.30743850934658   -0.70810839176362   -1.67050169941184
H           1.96687598137199   -0.51389969598487   -0.97981083582332
H           0.85895899640662   -1.50921137112442   -1.35726038432968
H           0.07816373438939    0.30901599228730   -2.03917808074423
O          -0.81752556035469    2.61052795115849   -0.24474372611308
H          -0.86901684798158    2.15165765374707   -1.10295951645880
H          -1.43546180471270    1.51621784833830    0.68357809402006
H           0.09425621236222    2.43584143689320    0.06124200018262
N          -1.67020584481371    0.59659127635841    1.18467675570405
H          -2.08577244596970   -0.05759821120236    0.45895609978488
H          -2.28688272316004    0.73503262500882    1.97638599396180
H          -0.75243228134494    0.17140436779969    1.48252959623845
