    26
        -50.46983303  Gyration_radius:  2.43240797015 Dipole_moment: 4.333
 S           0.35237725077267    1.24663197652713   -1.59832032338404
O           0.29257311416240   -0.11255908930254   -2.07220127627361
O          -0.93094716467938    1.86658975806092   -1.34642079637039
O           1.23856731260630    1.37259755920363   -0.42945132748023
O           1.03182672214491    2.10213738461436   -2.74519854796902
H           0.69434035728899    2.97403865067643   -2.56876092697842
O          -1.55291326817165   -1.15622053951093    0.79501054439158
H          -2.09901347081962   -1.00716398071424   -0.00440980134072
O          -2.47653048826047   -0.31455618342742   -1.58957307947026
H          -1.93181693813447   -0.78671936672051   -2.22520125405846
H          -2.05693728259835    0.56321696712378   -1.51948476386279
O           0.41638961514776   -0.53760325216360    3.01256983104394
H          -0.27360884179851   -1.18467081690736    2.83017314503892
H           0.03415272661673    0.31904815861490    2.76615737720453
O          -0.67263299771928    1.40976250566557    1.38510292034493
H          -1.28533156998625   -0.25771872590765    1.05771985295819
H           0.06408278808510    1.49061805492350    0.74225113250114
H          -1.37970122541341    1.93565834627475    1.00156104933990
O           0.47395124691888   -2.28373239667968   -0.53067366594455
H           1.50693858282020   -1.54622523318825    0.31025551646567
H          -0.33896289893904   -2.08272990575067   -0.01017557199388
H           0.43366522070295   -1.65363736480027   -1.27714988850061
N           2.02928584499400   -0.78432955055077    0.87956148639111
H           3.01958126267031   -0.97521232030201    0.97622147744730
H           1.55053057461328   -0.70561090437597    1.81211703447660
H           1.86013352697326    0.10839025863138    0.34831983602670
