    26
        -50.46999334  Gyration_radius:  2.46226123931 Dipole_moment: 3.135
 S          -1.45009947705679   -0.01135813573724    1.67311331206566
O          -0.59985324006342    0.01018862256352    2.83854361847442
O          -1.22315168970739    1.14775914238803    0.78975024500605
O          -1.43341519128599   -1.23557389698819    0.91480869949921
O          -2.92908292636838    0.18681459667899    2.23193338077735
H          -2.75776684503545    0.27919464410146    3.16311204024513
O           1.72271171132251   -1.58913738627205   -0.96022659962319
H           2.44701225404682   -2.21597887040609   -0.95136055568740
O           1.23844982578544    2.04681916303093    0.64526556865560
H           1.33406791017648    2.84387822121399    1.16777811526774
H           0.29761143261788    1.76144606938971    0.74276814805672
O           1.52059912399275    0.99089731097658   -1.89517596756623
H           1.61020406434057    1.48165511433131   -1.06133770303123
H           1.76438779164765    0.07051816306009   -1.68434568831412
O          -0.91487571600625   -2.08150725604635   -1.53872526547478
H          -1.11122356697399   -0.55585043115782   -1.81204325216376
H           0.05564805675220   -2.11423791961037   -1.45700223200945
H          -1.22694626579950   -2.01409177114180   -0.61479788555874
O           1.60168714700589   -0.57223497718578    1.45354204654349
H           0.81576147854070   -0.55613336488332    2.02949114013764
H           1.61159418912624   -1.28921636064355   -0.01887193406101
H           1.77662182237348    0.36162027274272    1.25832833939759
N          -1.07473517436491    0.51598709909461   -1.76952001853524
H          -1.73956024546311    0.95010709762390   -2.39864966070909
H          -0.07408759114201    0.80309065112177   -1.97890633325224
H          -1.26155885850079    0.78534421177044   -0.76747154817600
