    26
        -50.46983305  Gyration_radius:  2.43245103858 Dipole_moment: 4.336
 S           0.69835646294302    1.80444772042701   -0.70020966278065
O          -0.63598602658998    2.08729078869619   -1.18427206086234
O           0.83603762603769    1.77771738750864    0.73360386776503
O           1.23579731881801    0.58062463784240   -1.31738889858019
O           1.61225046358319    2.98629807810804   -1.22651449280994
H           1.19600202953685    3.20489993043719   -2.05366090035182
O          -1.64676788207072   -0.76540087657068    1.04098885113630
H          -1.96897503527753    0.13901634938902    1.23511087688401
O          -1.94797908721493    1.90766962916725    1.15071423618152
H          -1.60788873187287    2.05210617461877    0.24798806736792
H          -1.23066332285614    2.19521589599711    1.72211878444911
O          -0.36830755330621   -3.02094577025636   -0.52627907065208
H          -0.71503433023819   -2.41132231909411   -1.19617866149587
H          -0.95146171949806   -2.92021479341985    0.23388676177727
O          -1.08672825093238   -0.61344672370486   -1.67363641337496
H          -0.21126707663925   -0.17162509875496   -1.64362483176065
H          -1.50467679500998   -0.75379537834613    0.07783472056558
H          -1.69290207968185    0.08151054794008   -1.94423942239688
O           0.71354544210424   -0.41970174113357    2.24341379449056
H          -0.21728214893256   -0.63515424364235    1.99984006825633
H           1.44815327533010   -1.16715456612554    1.13931272585275
H           0.84001324239063    0.48679884718058    1.89965843497262
N           1.76187869932361   -1.54105495265341    0.17007187734356
H           2.69980347623267   -1.92397961925132    0.18086897401642
H           1.69378238403381   -0.70916941365508   -0.47109750432308
H           1.05029962981127   -2.25063046068951   -0.13831011166803
