    26
        -50.47399122  Gyration_radius:  2.38937741301 Dipole_moment: 4.402
 S          -1.40094275312815    0.27033145895005   -0.16323461393742
O          -2.70959129374804    0.26938014970206    0.66355075221314
O          -1.60900170241983    1.01223904107188   -1.37452481322937
O          -0.34885130038056    0.85882270218538    0.68055476300489
O          -1.06319804426879   -1.14041331794505   -0.44089578416655
O           0.88899855737615    2.93665248478890   -0.48281533812289
H           0.44487760037508    2.22026131568559    0.01294261589993
H           0.26361494837800    3.66260504748022   -0.51380259130566
O          -0.11297355467028   -2.39406260017219    1.62976815321002
H          -0.50534243879838   -1.97268568043812    0.82293029944798
H          -0.44173554973898   -3.29378766224330    1.65299325293297
O           1.91936427599029   -0.57604300758659    0.89461943390615
H           1.21022701824017    0.09547532970498    0.93339346345868
H           1.54620348070196   -1.34730927564992    1.34344723933154
O          -1.41942142699830   -0.31555131772814    2.84375866708281
H          -2.41449052125716    0.00335634473463    1.57226922996468
H          -0.97389273134216   -1.16587797127982    2.67550044699923
H          -0.81636969544669    0.35511287849972    2.49246217603821
O           0.67780407615841    1.42254627502590   -2.67327893713642
H           0.99306809747937    2.09265833567186   -2.02945095442350
H           1.16184157950973    0.06731157726569   -2.14473447229753
H          -0.26971781342415    1.32869252624221   -2.44272314490191
N           1.25508193199724   -0.88612989220094   -1.64144152492199
H           1.78681573845472   -0.77595118248593   -0.73470072018071
H           1.65882660740993   -1.59469965778189   -2.24402765376473
H           0.27880486354872   -1.13293392150721   -1.33255994511382
