    26
        -50.46999141  Gyration_radius:  2.4620638546 Dipole_moment: 3.185
 S           0.22716166315162    2.19795567494667   -0.13805261306296
O           1.49400589087581    2.35162748703984   -0.81113481870442
O          -0.74084335505256    1.42058601829299   -0.93492205467300
O           0.29519018369392    1.69228494348955    1.20840561294927
O          -0.38923870134971    3.66558420312603   -0.06806752723402
H           0.26554450739327    4.15846964334842   -0.55115658092264
O           1.13214327222376   -1.89657728109776    1.24052573456482
H           1.85965882210750   -2.41815126709098    1.58147735313024
O          -0.77235001339561   -2.41387570636223   -0.67646953731103
H          -0.39385011042776   -1.92740441082311   -1.42767666907125
H          -0.06981318775219   -2.43868092631184   -0.00054212973169
O           0.24304959662390   -0.51435641850727   -2.41034192567812
H           0.27744911856571   -0.24849179055084   -3.32982110072023
H          -0.13112018745682    0.25274424652581   -1.91259895136336
O           2.18036709040309   -0.20024676782614   -0.46210418640068
H           2.07596520946351    0.76846033612173   -0.44350218563996
H           1.54595198277813   -1.18599229013697    0.68167754627291
H           1.73532937361536   -0.47503591153893   -1.27886354658698
O          -0.61764436652868   -0.32612815416851    2.65687446520120
H           0.03681353565687   -0.98945773347740    2.37157627155525
H          -0.23030219982639    0.52463746809115    2.37128092643073
H          -1.60607496685135   -0.38534915407130    1.44801714653298
N          -2.04143730885463   -0.39938941365867    0.46713811674602
H          -3.05212906947876   -0.33554372251364    0.49290549839166
H          -1.70490240322710   -1.28568032731094   -0.01119493501859
H          -1.61892438632141    0.40801125451150   -0.06342988964666
