    26
        -50.46983304  Gyration_radius:  2.4323544668 Dipole_moment: 4.338
 S           0.00269277545765   -1.72054177851671    1.12786375879623
O           1.33187375470175   -1.99817249860814    0.62681199994226
O          -0.03310118718312   -0.43623654679135    1.84669743824411
O          -1.05077781839776   -1.80805639435125    0.14914735313852
O          -0.29208056316528   -2.83034626264950    2.21895318405045
H           0.57432659531343   -2.98870753278040    2.57897832281988
O           0.51742342387376    0.63129035800286   -1.92600666856733
H           0.66090309754429   -0.29454790078949   -2.21197738193296
O           0.52062732750257    3.04262682315932   -0.09371604595932
H           1.24477469160838    2.48150843007942    0.22474162262443
H           0.45750278543183    2.86300278310640   -1.03809987716291
O           0.76143439710849   -2.04884067397844   -1.99562758611874
H          -0.14399034213564   -2.36295669795638   -1.92314945387410
H           1.10940439403887   -2.10867320205679   -1.08632810500016
O          -2.03488321159760    0.25256550809441   -1.23278587140547
H          -1.87121772776161   -0.61870658741003   -0.82059683762454
H          -1.87867697604660    1.10830346577098    0.01709464853234
H          -1.18402339587191    0.46165979770795   -1.68483042583537
O           1.90119202156817    0.72016525164735    0.47939820398439
H           2.55795624771723    0.03364836222953    0.33456900072682
H           1.04918542178449    0.70287742940708   -1.11359472357565
H           1.24110191714123    0.30126541715744    1.07206133017039
N          -1.48404283720714    1.56888203444779    0.91677414908176
H          -0.98014496143991    0.79098213544999    1.41559287819884
H          -2.20614148297677    1.97535643884471    1.49972835880803
H          -0.77131833701975    2.28165182073557    0.61830070791458
