    26
        -50.46983301  Gyration_radius:  2.43224805089 Dipole_moment: 4.338
 S          -0.38987849735913    1.98438776359363   -0.37613150793295
O           0.92748848465107    2.08912591621284   -0.96625076163090
O          -1.20735816111091    0.98476706218609   -1.08325590124310
O          -0.40722188094328    1.76937239866378    1.04822165998673
O          -1.09640408919517    3.37775199721609   -0.63771034601601
H          -0.72028036146939    3.63669340610169   -1.47241677911209
O           1.54820318481454   -1.19660017934363    0.73887944699261
H           2.05600904348309   -0.40466347255629    1.01194978759340
O           2.37416319147481    1.33015418040939    1.16312229523318
H           1.77866182947627    1.65436664711933    1.84415993248018
H           1.99257492277230    1.66643729236799    0.33077691973449
O          -0.27460427166433   -2.92451206996498   -0.95195029285775
H           0.12491671247359   -2.29547360655625   -1.57271306956265
H           0.38055429183913   -3.04404637000433   -0.25581929832141
O           0.79720650408742   -0.54380621409604   -1.85321880045981
H           1.50187447497410    0.06230060651758   -2.09752917094634
H           1.32924025225732   -1.01571329382336   -0.19239392661661
H           0.03091232871489    0.03985477859648   -1.66711682387587
O          -0.58594296150204   -0.61363327351969    2.23718758890370
H          -1.54481879462053   -1.04214640348649    1.13429092335052
H           0.26014445071377   -0.95518539839239    1.86379266697538
H          -0.56229156742049    0.34171385992038    2.03087769916506
N          -2.00691010917773   -1.20406269777055    0.16611534595495
H          -1.47614416924325   -1.97664534760043   -0.30996206670918
H          -1.83304060095414   -0.31211979169769   -0.36491145534793
H          -2.99705421705831   -1.40831778009061    0.23200593431163
