    26
        -50.47000880  Gyration_radius:  2.46295887093 Dipole_moment: 2.584
 S           0.14607265444860    1.96524530392940   -1.01468666545639
O          -1.00144387433257    1.20409725016550   -1.45058811220807
O          -0.12769202997449    2.89676741107665    0.05109876471583
O           1.29128280211990    1.08651396266839   -0.73888165278868
O           0.62839071672796    2.84259546567719   -2.25399437366014
H           0.06074497878864    3.60235270933833   -2.18085852864759
O          -1.78685872054287   -1.38628934422022    1.11515165729039
H          -2.53861767605102   -1.57133974011772    1.67920906552096
O           1.72705647779400    0.42551482681293    1.76893929257746
H           1.61955732265043    0.72543711942430    0.83492877730594
H           2.43917842560773    0.94837436945667    2.13919043675189
O           0.85244654963891   -2.15117690242367    1.25723753975687
H           1.24609599999455   -1.34354205962100    1.62699722280563
H          -0.11202050744220   -2.03549945629453    1.34379800235832
O          -0.97452513942821    1.02508993712494    1.73451159787590
H          -1.55081736173152   -0.43430834924271    1.28069209319205
H          -0.08079910503163    0.83495815319359    2.05947299480130
H          -0.85365169660135    1.76727845450988    1.11292107331264
O          -1.70235613243159   -1.33899580302355   -1.62689363068246
H          -1.64231886447166   -0.36501255400666   -1.70505995059973
H          -0.15676979365562   -1.52940145553933   -1.55778240536375
H          -1.93441304114410   -1.48661866532290   -0.69205673531296
N           0.88172406540012   -1.46098850914031   -1.29178941850799
H           1.48651597945928   -1.90589327958827   -1.97181069912441
H           0.98541560517919   -1.88125190786190   -0.32211483951097
H           1.09780237500192   -0.43390693696580   -1.19763150645185
