    26
        -50.46983305  Gyration_radius:  2.43236619295 Dipole_moment: 4.339
 S           2.02854518239979    0.29391220013115   -0.17873729705921
O           2.22707765458818   -0.79337727187702    0.75574457704571
O           1.29975676521268   -0.16286864268975   -1.37362630698571
O           1.43430921990710    1.48081249437175    0.38135523434969
O           3.47242553491746    0.70047463246542   -0.68751286901787
H           3.93062846881771   -0.13319913484055   -0.66880362974451
O          -1.42614318484132   -0.33620398851854    1.49382682749405
H          -0.76388003229275   -0.15792029021996    2.19322880184459
O           0.84733704640371    0.21061875137304    2.82777517007457
H           1.41587596847184   -0.25676649921295    2.18757925219579
H           1.00189215595217    1.14146300678753    2.64515878322738
O          -2.53800971813024   -1.34248894543323   -1.13715213464355
H          -2.87414077982965   -1.06864553748499   -0.27684126579237
H          -1.78358166825211   -1.92046533125390   -0.94382380839379
O          -1.17097289300700    2.05823441218006    0.33661282381155
H          -1.43808290312760    1.27436598722063    0.87166993982181
H          -0.19779209936010    2.08123387574104    0.42766902187488
H          -1.23637023549972    1.45189669069827   -1.05837212870605
O          -0.05576396878764   -2.08015928208414   -0.17575823458410
H           0.49109154699346   -1.44065858516212   -0.68017580928389
H           0.55937000952436   -2.47806180774410    0.44624950696150
H          -0.98804031934857   -0.99795007511750    0.92980615392057
N          -1.10603877052852    0.79355705111398   -1.91108195624971
H          -1.27280550416563    1.25810863410432   -2.79586820574271
H          -1.74417155357631   -0.03020015857601   -1.77236202105241
H          -0.11251592241688    0.45428781405393   -1.83656042533456
