    26
        -50.46272417  Gyration_radius:  2.48186686196 Dipole_moment: 6.102
 S          -0.42328962830101    2.25580416555628   -0.45373767923057
O          -0.31231893986632    2.89677574496253    0.83156439214728
O           0.81813201083972    1.82848082154385   -1.05071280181198
O          -1.39779502949823    1.14712705865116   -0.45732450147930
O          -1.05192445516793    3.35515827110540   -1.42184174580327
H          -1.37993702823430    3.98328712486063   -0.78697086459438
O           1.81145353072694   -1.18699431296091    0.94965747455442
H           2.52254761316401   -1.40519841633220    1.55363346486887
O          -1.85880486668009   -0.44623160062631    1.69689137683031
H          -1.55644068564342   -1.27982082105110    1.31304753397349
H          -1.89164289830246    0.19011279365095    0.96112814992767
O          -0.40773600296879   -2.60432439382283    0.46284295919453
H           0.43623287076880   -2.14552178912373    0.68587380469566
H          -0.35137010592893   -3.48752089861566    0.82853331822956
O           1.97533314681844   -0.43955504442071   -1.68144993821961
H           0.49147409048073   -0.80708571271656   -1.83921732094384
H           1.77333193244541    0.51240493294111   -1.56455127430737
H           2.14722162813486   -0.75608691876905   -0.77601114422270
O           0.54237373440251    0.72432988828716    2.10934017593754
H          -0.34364334930832    0.32278822512442    2.22758794768726
H           1.36024991181446   -0.37902386686200    1.35253756989111
H           0.36380453774121    1.59190591675793    1.69984539039304
N          -0.57292036391186   -0.95511012339136   -1.71980803106430
H          -0.94362004302345   -0.05795185589937   -1.25822253914478
H          -0.71165613199297   -1.73395925812267   -1.05903495860979
H          -1.03905547850961   -1.12378992072569   -2.60360075890012
