    26
        -50.46983302  Gyration_radius:  2.43231186474 Dipole_moment: 4.342
 S          -0.43467611750459   -1.60000193956057   -1.21795040951059
O           0.29764486152950   -1.87378281533781    0.02954807177273
O          -1.83855691227169   -1.36593918979843   -0.95502387108609
O           0.21871977873192   -0.58353118544907   -2.00229970498307
O          -0.36633283422373   -2.94121888876179   -2.05775114416869
H          -1.10503200124673   -3.42980894937125   -1.71011908157612
O          -0.66289171198233    1.95404313122649    0.34318070742360
H          -1.23784149536734    1.91908257104380   -0.44913209055425
O           0.76670971475250    0.97672989768460    2.82740596089557
H          -0.02295637388407    0.41849478478140    2.75343369791708
H           0.51983403342298    1.81871258752505    2.42962135908002
O          -1.99287415693224    1.15729155705560   -1.85760019748249
H          -2.10302044132710    0.24099982926487   -1.54173220116674
H          -1.30801082424284    1.09504264562623   -2.52896460677493
O           1.59413709027625    1.47415000800045   -1.00359292727440
H           1.19264143250278    0.79514119006569   -1.58119079858897
H           0.82228594956061    1.86839472251891   -0.53368003689938
H           2.11070694721580    0.54412598889322    0.08584063068288
O          -1.26049185882341   -0.44582281612614    1.60481969446549
H          -0.90460462766152    1.14911672232722    0.83472152563078
H          -2.15438885873008   -0.59843236777417    1.28656430415551
H          -0.70807597996144   -1.05953479140595    1.07504675456684
N           2.17057349277488   -0.20609086287843    0.86746073430852
H           1.76356276816447    0.21600109802790    1.73999523595388
H           3.11344520354131   -0.54640163934548    1.01460138104679
H           1.52949292169807   -0.97676127827725    0.54679700218127
