    26
        -50.47000877  Gyration_radius:  2.4629862732 Dipole_moment: 2.583
 S           1.01765447642700   -0.85342822988480    1.77490967198561
O          -0.02807393825127   -1.62110105779454    2.40391830525815
O           1.50700655074335   -1.41454843755173    0.53721027540305
O           0.67933868754693    0.56776936883006    1.61539048537147
O           2.23563712160581   -0.84260009477417    2.80172418873749
H           2.19567866092455   -1.72572437221052    3.15293157547122
O          -1.03205007404227   -0.85107435276190   -2.13770135609743
H          -1.55901209709576   -1.42051265534197   -2.69946586430953
O          -1.31081009270239    1.79002016027261   -1.41868486810451
H          -1.34785991115164    0.90383596263530   -1.82416313364901
H          -1.69534470519110    1.68752094159773   -0.53237656498728
O          -1.85091321818977    1.16822772641066    1.22486097557601
H          -0.91089417943809    0.96324391172756    1.44466155002419
H          -2.25369679843001    1.48436101840801    2.03443209384054
O           1.70241423883544   -0.67782783574231   -1.99432458627483
H           0.77954924106744   -0.84170043435291   -2.26087336870804
H           1.55482365411061    0.73537703828632   -1.35341210351390
H           1.78341519753997   -1.13057072005823   -1.13012119294137
O          -1.67746745124981   -1.44460619731111    0.32974365572580
H          -2.04772974264358   -0.59863799250053    0.62603432759048
H          -1.20387519095643   -1.15399201864363   -1.20591272488991
H          -1.05841521800124   -1.69990458433801    1.03930352691976
N           1.23740708366737    1.57256450195804   -0.75988305763866
H           0.26132675820370    1.83538350798145   -1.08524034305057
H           1.88361211578794    2.35102853328269   -0.81008404187944
H           1.13827885087774    1.21689628187383    0.22712255420121
