    26
        -50.47001090  Gyration_radius:  2.46315500347 Dipole_moment: 2.618
 S           0.64869672479956    2.11793121661707    0.07994705676738
O           0.80719252165141    1.44257413284514    1.34629042348384
O           1.83092515154422    2.12489024561381   -0.74566317875043
O          -0.54978605942663    1.64171159179026   -0.62558803750232
O           0.32753984234993    3.64661283162076    0.39449054109061
H           1.20238141304812    4.01758767944254    0.43610736445784
O           0.87065202423154   -2.23893969188698    0.77118366046004
H           1.51283789944676   -2.93457004034683    0.91700628086921
O          -1.34877185525006   -2.09612848062075   -0.84848791173401
H          -0.98802960106316   -1.58013725619994   -1.58853049113354
H          -0.57814542290341   -2.35224659188476   -0.30834314143500
O          -0.21183424716583   -0.17958803269088   -2.49136100498103
H          -0.24762067061170    0.21656458178352   -3.36276462371542
H          -0.34375152862199    0.55591730673831   -1.84659238856745
O           1.99612597628367   -0.52470564684343   -0.85831217653513
H           2.09743070663228    0.43323174940420   -0.70457870940994
H           1.34056855397204   -1.54209520031873    0.23938234113601
H           1.40069261776683   -0.58534484335005   -1.62130045872308
O          -0.29048311901389   -0.59021396737070    2.63208558007343
H           0.16742061963263   -1.31380394538156    2.16699810341520
H           0.21461858639696    0.20976682103613    2.38101180575672
H          -1.44154401265988   -0.30142239260935    1.62119993392702
N          -2.00827220865428   -0.08729135102659    0.73415942777736
H          -2.97036912900153    0.15571284094453    0.93777488005832
H          -1.93075245032541   -0.93564217525562    0.10024805446385
H          -1.50772234304181    0.69962859795226    0.24363663874578
