    26
        -50.46272393  Gyration_radius:  2.48201160714 Dipole_moment: 6.090
 S          -0.09079100687534    2.33806117456102    0.00448122748351
O          -0.92710773151492    1.78403107991822    1.04070664578558
O           1.23238074718502    2.73494573700261    0.41299133694988
O          -0.08291793999006    1.44778265122853   -1.17276798989508
O          -0.79674410361302    3.67540251479192   -0.49935926401754
H          -0.04248394370278    4.24679852730141   -0.59945239311180
O           0.49661607131581   -1.64140585236462    1.62782629179905
H           0.94963961323124   -2.08276697772299    2.34759422014178
O           0.18271772994729   -2.51985244763928   -0.88186895852402
H           0.32858346997855   -2.26904417150012    0.06075534880524
H           0.41897339994650   -3.44416414521495   -0.96516141706542
O           1.89397523182718   -0.34825693369570   -1.68129886560735
H           1.36396656057317   -1.15311340359975   -1.61073554592905
H           1.26014877584704    0.39034237604054   -1.67304421337958
O           2.07591567042389    0.26768356040198    0.94412862870192
H           1.81274101308790    1.20645806232497    0.90155529617711
H           1.06602746127068   -0.83668525986589    1.41041240080330
H           2.27727833484533    0.02768942634797    0.01560969339577
O          -2.01042547178002   -0.53597116498860    1.61012325853109
H          -1.98140416180467   -0.58688418341542    0.07455013077398
H          -1.19024713022495   -1.01627129738764    1.82504902375708
H          -1.74395207883326    0.40709844799384    1.62806605432110
N          -1.71791643964056   -0.54760786606022   -0.97342759993361
H          -1.14919287801482   -1.38004310937140   -1.18803357080414
H          -1.09302456104291    0.31956975099385   -1.08626496927600
H          -2.53275664244256   -0.48379650608198   -1.57243477988399
