    26
        -50.45601957  Gyration_radius:  2.51560441452 Dipole_moment: 5.339
 S          -1.21374792403638    1.64511621812738   -0.56872315089264
O          -1.65914485111264    0.30566476619343   -0.21156623169151
O          -1.72528958942894    2.60786021517590    0.40621173413876
O           0.21602851377442    1.73466850803349   -0.75682468951885
O          -1.86804431185402    1.99460040776095   -1.96429442259867
H          -2.79388254549853    1.79380231062772   -1.85865496020893
O           1.97513346295878   -1.30728170881326    0.77310408666735
H           2.43516579087228   -2.03161214398079    1.19744265177287
O           0.17649734039685   -2.47560793454086   -2.38739033552994
H           0.67587707660599   -1.62819982866568   -2.32640873325836
H           0.73215918113320   -3.07480216221145   -2.88677656213603
O           1.64670398299258   -0.29705184928565   -1.86475074658814
H           1.12207704939071    0.48820469431771   -1.63134144096414
H           2.02828534786249   -0.60089785336769   -1.02884578667586
O          -0.45455905602196   -2.04103291892145    0.21163303081893
H          -0.33235473955485   -2.42063063383758   -0.67979838632004
H           1.04080145916264   -1.62663584484188    0.59204562949606
H          -0.94103313443972   -1.21306494182703    0.03250729219092
O           1.38226207441398    1.16948862345890    1.57649869595103
H           1.13434586763040    1.54138031901385    0.70427513254004
H           0.00645134695142    1.04253289175809    2.15619736349805
H           1.73420062592135    0.27620487254616    1.37001218832006
N          -1.07817833286879    1.01959988244477    2.31016213297407
H          -1.43904750699582    1.81056260461070    1.67416055275215
H          -1.35407440325840    1.11922481375161    3.28169801503556
H          -1.44663271505579    0.16790668244538    1.87942694020709
