    26
        -50.46133367  Gyration_radius:  2.45485898048 Dipole_moment: 4.881
 S          -1.82718660457348    1.01423279234534   -0.37758842756041
O          -1.40805055785604    1.73875975839985   -1.57781298394519
O          -1.98399841402989   -0.40153917891686   -0.64069692120017
O          -0.96507517956627    1.28805613233550    0.75261751158151
O          -3.25677010314233    1.57287468622730    0.00229925145778
H          -3.79411654465862    1.30077172015104   -0.73508017388076
O           2.11720626442358   -0.63841097003054    1.08373989980054
H           2.65020709634260   -1.41479263002791    1.25925749391248
O          -0.45219946707967   -3.13517954543882    0.65440587698631
H          -0.50316945094756   -2.42048826489384    1.33033480720993
H          -1.35095528956846   -3.23277187257351    0.33408547740827
O          -0.45494145128486   -0.93698468391396    2.22743214610646
H           0.49711952438203   -0.76903937676700    2.23935823529726
H          -0.82986100134107   -0.17805830195922    1.74710538529912
O           0.47138278115758   -1.26545383945159   -0.97360380484134
H          -0.44205348068523   -0.90051407920439   -0.90655469955272
H           1.52437887726174   -0.87150298531926    0.33287833205292
H           0.34123366529870   -2.15662859792355   -0.57748736516329
O           1.60683086411391    2.00820658295045    0.65906252937247
H           0.65097604201297    1.94194381533549    0.86161200119902
H           1.99493575017340    1.20554539925257    1.04328558732509
H           1.46612828744017    1.64131801742196   -0.83672287797873
N           1.11203744312409    1.25123624065599   -1.77904187519934
H           0.07182524169390    1.52243825649307   -1.81032539765693
H           1.14116859732337    0.22208030689551   -1.73641381702167
H           1.62294712000707    1.61390062794855   -2.57614620099884
