    26
        -50.46133375  Gyration_radius:  2.45461370871 Dipole_moment: 4.883
 S          -1.90680905591971    0.35870240476967    0.86185884318837
O          -1.98416716820268   -0.75738180246104   -0.05817188373996
O          -1.59746997839504   -0.08769456058029    2.22055887996501
O          -1.00809111486213    1.40118944833899    0.41351508069678
O          -3.34851150547577    1.00490469092714    0.92368937282315
H          -3.90376219885192    0.26473810046764    1.14810513218983
O           2.20686657055140    0.42239453272362   -1.00814685340651
H           2.79716089358160    0.05617960754642   -1.66780881270302
O          -0.27834107658290    1.09304913848195   -2.18601790106517
H          -0.72620301293993    1.21513131080501   -1.33056615711697
H           0.66000054369076    1.21422309926620   -1.98695144496142
O          -0.21220301496122   -1.52850410557747   -2.84136893393671
H          -1.11768745646914   -1.83916662069629   -2.78174409403789
H          -0.27529679644254   -0.55086225353887   -2.73859713700459
O           1.50243864685056    1.80784335038925    1.23463854504097
H           1.96172091875872    1.58348831570394    0.40927462440773
H           0.56449155338075    1.91518043767837    0.97430708762152
H           1.31091613906483    0.42898317566439    1.90860965780609
O           0.50340550991825   -1.55871443568051   -0.29472027675840
H           0.45245938688664   -1.83282641421195   -1.23833799396126
H           1.59311505521817   -0.30308947180047   -0.75026234680677
H          -0.42760222579459   -1.27574004363085   -0.13623557444572
N           0.93642109103991   -0.54361232790148    2.19004933033014
H          -0.11976331493064   -0.39700056708334    2.32967272445113
H           1.38127022842377   -0.91513189171480    3.02191903108035
H           1.03564139244559   -1.17628310789398    1.38273108036881
