    26
        -50.46633018  Gyration_radius:  2.51115678117 Dipole_moment: 2.619
 S           0.14543968896109    2.08639752817421   -0.07683251511679
O           0.06294599171045    1.33466396175049    1.14758751119693
O           1.46969522220265    2.51945897995675   -0.45524732859873
O          -0.54552718105643    1.39252305005183   -1.17608523758668
O          -0.69537813006635    3.42006511783552    0.15621938643313
H          -0.29654974552197    4.01756281267713   -0.46805001146122
O           0.45905202357890   -2.00160863002749    1.38832584583377
H           1.14177165903865   -1.85917482562698    2.04536358356843
O          -0.78289736213016   -2.64160522936280   -1.16218224848323
H          -0.57445640118211   -3.02243870926042   -0.30141232826928
H           0.00030314279400   -2.11410392807847   -1.39095974605098
O           3.32608493231580    0.66107330742230   -0.19801475660147
H           4.00332716801824    0.89187252049746   -0.83656662241597
H           2.70914176003398    1.42587589556849   -0.17393007480086
O           1.12233964314841   -0.68918562773413   -0.88549260546646
H           2.01876629628218   -0.34998447221392   -0.67739543235041
H           0.72574259473286   -1.45460892313746    0.61486440198252
H           0.58163326745737    0.10262953021711   -1.05210529280295
O          -1.66499166527655   -0.44797096049653    2.02860318826689
H          -1.10944053255660    0.35207499257214    1.91654268640745
H          -2.17473467101197   -0.49686176595025    0.57140027834281
H          -1.00579566605011   -1.17081464438685    2.00426161925451
N          -2.25047618640523   -0.49394876641251   -0.50435142111593
H          -3.20558744646154   -0.39162352100643   -0.82674494552458
H          -1.81127414672254   -1.38367357170269   -0.85721054616446
H          -1.64913425583764    0.31340586866876   -0.83058736848812
