    26
        -50.46633010  Gyration_radius:  2.51091927989 Dipole_moment: 2.612
 S          -0.41609507196260    1.76499278022959   -1.04476149002617
O           0.12411558719872    1.73241773031177    0.28879969729682
O           0.54039339906655    2.00143789190442   -2.10002150999456
O          -1.25257524610863    0.58301081579702   -1.31006197481153
O          -1.42480567031448    2.99793141671286   -1.09138096509258
H          -1.43127581074293    3.21476338900945   -2.01805521386947
O           1.39924952363989   -1.00312618361403    1.78195379934925
H           2.20909283020718   -0.51759583478721    1.94487525819158
O          -0.45456897524889   -2.89761107769991    0.58352113661878
H           0.12965513858599   -2.78230784676196    1.34163796657804
H           0.04096579026084   -2.52505156950966   -0.16456940986345
O           2.77131820993792    0.61135076974571   -1.86402032811539
H           3.10501912827591    0.51700609494825   -2.75811719444422
H           2.03137653911319    1.25584005532694   -1.92107641373476
O           0.87471603419825   -0.99379223509395   -0.87477319414094
H           1.23241546163444   -0.91191821633406    0.81635413165800
H           0.13103912053790   -0.41818375726654   -1.12501322029816
H           1.67303930761607   -0.55802869745944   -1.24189199098296
O          -0.68333458380958    0.56758921370668    2.50932533302056
H          -1.64063943982388   -0.23228869001372    1.59911778153559
H           0.08404387853331   -0.03949750142299    2.52718754364047
H          -0.42064486120239    1.22437313218661    1.83042487121580
N          -2.08607364373984   -0.77655934633419    0.78144671037721
H          -1.59085227428246   -1.70298480012890    0.70809566703710
H          -1.85875466349469   -0.21990180664498   -0.08931903102163
H          -3.08681971805968   -0.89186574682082    0.89032200988773
