    26
        -50.46633012  Gyration_radius:  2.51114862095 Dipole_moment: 2.619
 S           0.47941778921822    1.95030821140689   -0.58957821400803
O           0.08962491277375    0.91145333633726   -1.50606781297091
O          -0.55815886097475    2.88819085849829   -0.23167325373106
O           1.15355178383830    1.39195105535892    0.59401054195223
O           1.59980612052872    2.80749072866753   -1.33094603923348
H           1.52536195713917    3.65052605280836   -0.89560260790998
O          -1.29141567263017   -2.02644178796649   -0.60714278642482
H          -2.02272714725758   -1.84443872145384   -1.19888750947590
O           0.21253031459809   -2.32731785135559    1.86599861231741
H          -0.32134753736238   -1.52541217739236    1.99258163401380
H          -0.26915890001704   -2.83611112947277    1.20385733765955
O          -2.88117719980485    1.76800704972065    0.32795110276742
H          -2.08943453694963    2.24327155750961   -0.00888678632198
H          -3.31707788915186    2.37796569969553    0.92595354828766
O          -1.06439013816397   -0.00143102103412    1.17596097645344
H          -1.22361398282947   -1.23371844382275   -0.02784660337067
H          -0.29708134310095    0.57572059175572    1.01720527932657
H          -1.84879027072667    0.54905946052729    0.96675282932253
O           1.01112453122559   -1.51828513409628   -1.93849117348370
H           0.19126180085848   -1.94020178410424   -1.61046306341603
H           0.74498256293014   -0.57942791691717   -2.03370833167683
H           1.77392747747203   -1.33677826683701   -0.60845481670665
N           2.06756951501478   -1.06606745788605    0.39351438747388
H           3.05680928007977   -1.20790959457890    0.56064073674068
H           1.47382175031827   -1.62348561797354    1.06103929586244
H           1.80458368295706   -0.04691768741349    0.50228270655399
