    26
        -50.46851009  Gyration_radius:  2.45256866625 Dipole_moment: 4.993
 S          -0.27284608967279    1.94062855962274   -0.67346518950275
O           1.09399875616517    1.90807596985288   -0.16802259498637
O          -0.40310014965742    1.15520673183817   -1.89250485360797
O          -1.24957279859200    1.61033978830123    0.33990893390156
O          -0.55556555144348    3.44117287425441   -1.08923800429504
H           0.10890866213827    3.58887905461616   -1.75357700999036
O          -1.08903394287723   -1.96188463818544    0.11018722464526
H          -1.86804207261375   -1.50682732443412   -0.27070628726649
O           2.11797537680717   -2.05905037793232    0.52635172387956
H           1.42258522461248   -2.67093372524329    0.78517520133695
H           1.85753955066464   -1.72693518019994   -0.35287880301687
O          -2.71388745905042   -0.14547498235763   -1.06784022331407
H          -2.22399915275273    0.05967654644558   -1.87131491879086
H          -2.42543328521618    0.54824923157413   -0.44970777290170
O           0.87934662400023   -1.08701042540958   -1.68724501243142
H           1.02042111949989   -1.37454241170212   -2.59085681191890
H           0.44924255889217   -0.19575280523915   -1.75075068059318
H          -0.38109220160329   -1.77312415724245   -0.52461133697611
O          -0.96397925427258   -0.30650313075026    2.21692572326774
H          -1.28566084993625    0.47219339808602    1.72845943226301
H          -1.07863850386218   -1.05052498613653    1.58086594142944
H           0.53701092388138    0.00631336318955    2.12497091312389
N           1.53838935876301    0.23195634459068    1.79205193406782
H           2.11997431158233    0.59213864821951    2.53961440956387
H           1.42970462238937    0.94973661219212    1.01954654645693
H           1.93575419216481   -0.64600295796739    1.37866152565822
