    26
        -50.45511584  Gyration_radius:  2.50430348318 Dipole_moment: 4.604
 S          -0.30587572318929    0.82982099293413   -0.72073678461116
O           0.29378581388178    1.14028456941609    0.58866405344378
O           0.70675027827789    0.44929700830552   -1.67973565372226
O          -1.36606701505118   -0.15919437974731   -0.58220952255284
O          -1.00083234638944    2.13582820104950   -1.20589720340074
H          -0.22718177797936    2.75387197811192   -1.31196810229268
O           1.02615382417151   -2.14727121085380    2.06899325754107
H           1.90332334249166   -2.13746422267236    2.45614959008897
O          -0.72287191083374   -2.35594759327291   -2.03373781908172
H          -1.10122818156876   -1.61300943368723   -1.52921245779166
H          -0.41049054265874   -1.97244933740134   -2.85603245278567
O          -2.69912100080744   -0.62821805312113    1.60698238069384
H          -2.30440834407010   -0.54270418946652    0.70474608897030
H          -3.38933305134547    0.03509225602127    1.66368143806028
O          -0.39817311630895   -0.13742117746680    2.57901184678115
H          -1.36160715103358   -0.38512627856136    2.34328688573587
H           0.17063633416550   -1.00336431270274    2.45199094804343
H          -0.08912775738741    0.47201955173089    1.75855029425738
O           1.42760076804868   -1.85032100550697   -0.47562411130046
H           1.16086402380794   -2.07088434713126    1.07756513206685
H           0.74890294055539   -2.35603231269582   -0.96539198068663
H           1.34973697603184   -0.95442614994560   -0.84922826502798
N           1.38647724953019    3.17188572116568   -1.30134731777829
H           1.63116043809788    2.24924641107709   -1.65042887243574
H           1.65821152709822    3.20619198249033   -0.32691720708917
H           1.91271439246102    3.87029534192288   -1.81115415512299
