    26
        -50.46272426  Gyration_radius:  2.48178884843 Dipole_moment: 6.101
 S           0.08878733292863    2.28576847344717   -0.48996682213639
O           0.17823709063029    2.05295198077592    0.93046594724328
O           1.34363453235084    2.44640346728957   -1.17885139244099
O          -0.78216488558825    1.27269768043699   -1.11777323360539
O          -0.68256255628904    3.66662821045478   -0.68804562519075
H          -0.18329160543174    4.04762830091106   -1.40285861528026
O           1.38166214862867   -1.48922749274389    1.21067742639999
H           2.17855844769926   -1.91944610756401    1.52367995683318
O          -0.64313508523131   -2.59334173512410   -0.15022046008625
H           0.13271547031555   -2.26172954365286    0.36032072357665
H          -0.59141119994156   -3.54955640730959   -0.14825685084773
O           0.16623858639938   -0.94708285783375   -2.36872732121044
H          -0.23476147793089   -0.09714404207447   -2.11547499633676
H          -0.21603902262322   -1.60756829141637   -1.77606753556614
O           2.15929060639549   -0.05458467230439   -0.77572267062196
H           2.00157070473849    0.90523073291373   -0.85384238898844
H           1.68930112903060   -0.85528949699098    0.48807485908988
H           1.64384277870639   -0.44764571063898   -1.51059482953469
O          -0.35525032175455    0.10588143877838    2.60544087553615
H          -0.09005649856221    0.96604203391308    2.21763085639279
H          -1.40445047464629   -0.14376437471641    1.51037104312567
H           0.35016624212374   -0.50544878252707    2.32558015962733
N          -1.94118756461859   -0.29395305423481    0.58388857949026
H          -2.93705077812323   -0.13757959185305    0.68708897341266
H          -1.73595266009687   -1.24743955798046    0.25041016474718
H          -1.51669095911466    0.40156939003377   -0.11722680363216
