    26
        -50.46272417  Gyration_radius:  2.48197057835 Dipole_moment: 6.099
 S           0.05006784133498    2.18249593026981   -0.84187059502255
O           0.17349448993995    2.17675206871650    0.59503062548194
O           1.28749879461186    2.24317092557934   -1.57686965410363
O          -0.82215673495614    1.07604562018138   -1.28213977505598
O          -0.74179458180840    3.50850019100695   -1.23623629888628
H          -0.26172827153395    3.77727341487019   -2.01249577901758
O           1.42706500130205   -1.27099853870078    1.39282491315152
H           2.23577650989697   -1.64137832723619    1.74904502957512
O          -0.61614490558694   -2.59005911711095    0.27247958586012
H           0.16791270777567   -2.17657656465385    0.70476643557065
H          -0.55350866307535   -3.53373185717735    0.42276804657738
O           0.12207666779346   -1.30447405419752   -2.19535110728120
H          -0.28271290327242   -0.42858481949701   -2.06766553469082
H          -0.23840447099538   -1.86729375214609   -1.49755840463018
O           2.14143530265055   -0.15805968887889   -0.81146761582639
H           1.61355942283472   -0.66513146480290   -1.46295352714916
H           1.97040965619751    0.77660201706069   -1.03394304246337
H           1.71061500932338   -0.75545528714387    0.57270481368366
O          -0.29549591572934    0.50873898555699    2.56471396961675
H          -0.05062332007646    1.30026242313731    2.04111441777236
H          -1.36741501340680    0.08255468835474    1.54895680123473
H           0.41075491434062   -0.13251745139692    2.36579805508486
N          -1.92365008617445   -0.21479625939747    0.67080905706386
H          -2.91866484327522   -0.05230386706501    0.77266772059759
H          -1.71474921374045   -1.20700482853521    0.48527575973955
H          -1.52361737436956    0.36596961320555   -0.14040390688532
