    26
        -50.46272418  Gyration_radius:  2.4815155568 Dipole_moment: 6.117
 S          -1.54739566711594    1.58062150943068   -0.76143188901459
O          -0.20657087459897    1.30779336439880   -1.31561416246346
O          -2.57920318883716    0.79266955001759   -1.38544773107993
O          -1.50860470109535    1.53662872134412    0.67946822666329
O          -1.85922511316899    3.08907240667873   -1.17225117044514
H          -2.45070140801246    2.95538356296629   -1.90547991784770
O          -0.10904394459230   -1.84812069557702    1.47367890398928
H          -0.44062975611647   -2.64637308615178    1.88710494628701
O           0.56859550735394   -1.13761090185012   -2.21707643486402
H           1.27023636345693   -1.30085268554505   -1.57308852955621
H           0.30811504581523   -0.20738176224668   -2.09811254963293
O           2.18626423493894   -1.53794791743614    0.12979371643417
H           1.36691777979203   -1.72646094052050    0.64522202315438
H           2.77193049501629   -2.28571889197227    0.25182963115897
O          -1.57264503045005   -1.54899572753159   -0.61904718422131
H          -2.07895692643447   -0.74111176975274   -0.82645713306488
H          -0.90296241502575   -1.60794345395304   -1.33192481907760
H          -0.73343935250282   -1.67133247174743    0.70092526203656
O           0.11731353095936    0.66407543417891    2.54358492751299
H          -0.00678023907874   -0.29003490070699    2.38924387923921
H           1.10718050637301    1.01226200556233    1.42083426775929
H          -0.63397099838629    1.07942043391960    2.07070891912570
N           1.64024650139307    1.12393919632214    0.48672774462592
H           2.28736136668053    1.90354686324642    0.50451019933961
H           0.88656048840900    1.27116437497275   -0.26551966367088
H           2.11940779522033    0.23330778196864    0.28781852760374
