    26
        -50.46272423  Gyration_radius:  2.48158144604 Dipole_moment: 6.115
 S          -0.05209984884308    2.02193399558471   -1.17519763036067
O           1.09726038975839    1.95634039032690   -2.04091955212801
O          -0.95986956582582    0.87002097285614   -1.34285490459269
O           0.22668508113110    2.23576059993252    0.22344644077558
O          -0.89150686358648    3.27969597936443   -1.67996414305884
H          -0.50856532854736    3.41521122435788   -2.54034898437525
O           1.57441775535173   -1.05163570113104    1.41760137437605
H           2.41913668556611   -1.37022960787655    1.73859375218926
O          -0.56655207803487   -2.50925175411724    0.73821316022017
H           0.25553426734749   -2.04092064271890    1.01654249180142
H          -0.48377610691615   -3.41740920744396    1.03026848280905
O          -0.10039533212918   -1.63345222503538   -1.96450931468874
H          -0.38180157087056   -2.07687195517224   -1.15349559648098
H          -0.49601522630923   -0.74473372607715   -1.93406242416502
O           2.04338157486052   -0.30161886865754   -0.99646904723413
H           1.84392534831932    0.58765221408639   -1.34503918881331
H           1.76526653576348   -0.67199585109464    0.50230968938035
H           1.45431077865265   -0.90010868871198   -1.50155074296244
O          -0.02643554008569    0.90697526678374    2.47105564349804
H           0.15860870730168    1.60340316099571    1.80680467190154
H          -1.19600695555194    0.33829861509456    1.65101722683209
H           0.65860292638443    0.23465040692235    2.30312070410298
N          -1.83938596891928   -0.08740917487765    0.89374377026164
H          -2.81916853491015    0.09898863050856    1.07289485510934
H          -1.64459931002734   -1.09845177733766    0.84499241288639
H          -1.53095182988297    0.35515773341955   -0.03619314728731
