    26
        -50.46272428  Gyration_radius:  2.48159447334 Dipole_moment: 6.113
 S           0.19304350368534    1.49522984493496   -1.78852687375609
O           1.28854299156340    0.97544937797216   -2.56604803406208
O          -0.87518704849183    0.50015282839203   -1.57010621598311
O           0.55105400728575    2.12231217663421   -0.54020402057753
O          -0.47666143925906    2.61951719895912   -2.69896589909763
H          -0.10858913948852    2.40239712847711   -3.54906809939092
O           1.45963655323274   -0.73438591885728    1.71005020759055
H           2.26162469250228   -1.04722600342082    2.13082636515856
O          -0.40495629315700   -2.16419521813056   -1.30023249044896
H          -0.71651595851690   -2.26353492533396   -0.39104395741938
H          -0.66863983044880   -1.26896073184630   -1.57649138422028
O          -0.89084895369391   -2.00476037628720    1.53293625785714
H          -0.00060556664207   -1.59629018639062    1.64814530802051
H          -0.92739847796471   -2.76477431657634    2.11429907929882
O           1.94099108998230   -0.91453344499583   -0.80912493344985
H           1.66866394019507   -0.71585076107033    0.72301128535333
H           1.25426372233568   -1.55437111310793   -1.09067048105747
H           1.85766715470661   -0.17455826656253   -1.43967092554335
O           0.19477766261306    1.67653169136246    2.02027045853739
H           0.45234457782855    2.07481548842658    1.16266308388823
H          -1.07343575071338    1.04385972441412    1.42438808671475
H           0.77024412279748    0.89404667333445    2.09792803747357
N          -1.79860259435918    0.48819527821230    0.84644314892655
H          -1.46496104315948    0.54298206458526   -0.17405533873498
H          -2.73444269573984    0.86556168284716    0.93925603827065
H          -1.75200922709342   -0.49760989596204    1.14399130666492
