    26
        -50.46379209  Gyration_radius:  2.52756590313 Dipole_moment: 3.684
 S           0.58519845736761    0.36895549958707   -0.30545163043071
O          -0.89078964120575    0.23745090768499   -0.48920322008105
O           1.27581657237992   -0.14084436982723   -1.46292520025483
O           0.93938032673981    1.70849633213790    0.08890459107099
O           0.92073011149951   -0.61968659899695    0.85770350611269
O          -1.52702104210715    1.94148246084974    1.47810309588509
H          -0.95595134226979    2.69173693310674    1.28944963133136
H          -1.43733297648877    1.35855763264542    0.70245164605693
O          -1.36210428805447   -0.22317617538345   -3.12392929780468
H          -0.92564639710745    0.45827576774959   -3.63784183478412
H          -1.26703254705147    0.04702725367999   -2.19098501164137
O           2.04318165498462    2.32196779218725    2.42955747823195
H           1.68794133246074    2.21125213581021    1.52279161600044
H           2.98872696505502    2.18281792229581    2.36343580957288
O           0.31320949489674   -2.26740548307306   -2.64815799064935
H           0.92143980344085   -1.56632536576434   -2.31517788127262
H          -0.36160727145281   -2.49378735830148   -1.34320277730031
H          -0.36573888021945   -1.74408138168346   -3.12248193428349
O           0.14400573962614    0.50307073966489    2.97306697314678
H           0.62141062126411   -0.19489268420704    1.75084064243745
H           0.86127188294169    1.16066282555231    3.07998267942885
H          -0.61579303676101    1.02226230019326    2.61990139750273
N          -0.81574791869892   -2.33031572939671   -0.35017265481014
H          -1.03398383866068   -1.28044559679406   -0.35898468916057
H          -0.10594271200797   -2.45164907997792    0.37329403360423
H          -1.63762106056866   -2.90140667975635   -0.18096898791010
