    26
        -50.46272426  Gyration_radius:  2.4816496828 Dipole_moment: 6.114
 S          -2.24389912303368   -0.22223876887211   -0.62311033190927
O          -1.25775346626596   -1.30574997689994   -0.44156206728697
O          -2.97588335901615    0.07316008300438    0.58178313813865
O          -1.62780731281452    0.90632186806282   -1.27618076546895
O          -3.32039790903040   -0.81654561896674   -1.63772337724870
H          -4.03029937796494   -1.02733983571100   -1.04025442054185
O           1.30360537742765    1.75693439141539    0.90077936184298
H           1.54996263736704    2.49316938327511    1.46235024271458
O           0.08886229609517   -1.72834491708640    1.88250513572562
H           0.98053958222185   -1.55339937400347    1.55402232160333
H          -0.48349918291358   -1.76326764330112    1.09608994301654
O           2.49308919963017   -0.63630039831155    0.73558824110626
H           2.11631459619794    0.26857230965167    0.84446924917251
H           3.34542510898893   -0.63913737878563    1.17214168778718
O          -0.83211103422290    0.81157531410795    1.97593641486485
H          -0.54527440985594   -0.09645932569792    2.20684614498624
H           0.41795879047200    1.43402496154834    1.26081000150152
H          -1.67767636481059    0.68772710588437    1.50506276851146
O           0.80103726884203    1.75273551361728   -1.79303765833585
H          -0.17404310361460    1.66572807321224   -1.74787795060416
H           1.05978328981024    1.97427580191562   -0.88009454237074
H           1.00676193469109    0.22904872064870   -1.79010763050246
N           1.02163996486435   -0.82883503032368   -1.56811546513522
H           0.05286855949990   -1.05736673958848   -1.16195766079373
H           1.72206057166462   -0.98689770206500   -0.82844977010713
H           1.20873545575491   -1.39139083672643   -2.38991303067287
