    26
        -50.46272413  Gyration_radius:  2.48161276916 Dipole_moment: 6.120
 S          -1.72701061085394    0.38288764066905   -1.53069633453607
O          -1.74501156353670   -0.53841669721393   -0.37732645463909
O          -2.20682068236206    1.69996302908327   -1.19932815450809
O          -0.44579393791032    0.32884696541261   -2.19041772412547
O          -2.79939221117035   -0.21546442216906   -2.54731973550993
H          -3.53165860913230    0.37385919888515   -2.39956357635581
O           2.02670448553381    1.10145321726652    0.51961712126454
H           2.63507329802753    1.81709333196574    0.70896870795867
O          -1.30488946360965    0.26144746122988    2.18394113589000
H          -1.65811679016340   -0.06390024770182    1.33733424545420
H          -0.49483872844860   -0.24042734357798    2.34354203331194
O           1.32483019709116   -0.91164849239159    2.13947045951156
H           1.63839200310016   -0.14883953047469    1.59866165474805
H           1.90252438522044   -0.97124456525118    2.90088780395090
O           1.96505456299122   -0.55838970793817   -1.65968066928821
H           2.19778777235718    0.09572445256688   -0.97592478612715
H           1.09999150625366   -1.53281853351782   -0.84428545280961
H           1.18411376051264   -0.16745647790464   -2.10451054575054
O          -0.29811789728761    2.19702619814560    0.58775961015331
H           1.11832465521714    1.53645366569727    0.45514927769713
H          -0.94855690319110    2.15347499154768   -0.13829538007352
H          -0.71971788321871    1.70651674342302    1.32382351694815
N           0.37942279096028   -2.00280029615430   -0.18944163082138
H           0.70412186362027   -1.87663973015661    0.78081360232266
H           0.23606672706673   -2.98042136533072   -0.41421782748619
H          -0.53248269705975   -1.44627948610499   -0.30896088718391
