    26
        -50.46272421  Gyration_radius:  2.48188118806 Dipole_moment: 6.101
 S          -0.01593360690845    2.24076133680139   -0.67301727695593
O           0.00615620833755    2.12967448847467    0.76463893581477
O           1.26449605654083    2.42224696048219   -1.30749920378067
O          -0.79034648751083    1.12825965163854   -1.25761748192115
O          -0.85289815410569    3.55063402367456   -1.02606172699455
H          -0.33974276492018    3.90000321363490   -1.74698905424548
O           1.39600338621985   -1.29810270503745    1.39968303158733
H           2.19762962352120   -1.65117710922735    1.78806932543569
O          -0.48255690680408   -2.63196170754171    0.03467823959711
H           0.24304129096326   -2.21270071463253    0.55451859073282
H          -0.37458907456309   -3.57982799716450    0.11773925344686
O           0.35166529662450   -1.12209415177789   -2.26963498063295
H          -0.11078234595972   -0.28090695272993   -2.10874733933240
H          -0.02407723008735   -1.75507777190432   -1.64369754322158
O           2.19899054504958    0.01679095838589   -0.65812790432354
H           1.74837643739655   -0.46505086449113   -1.38269869498853
H           1.99084090891938    0.95571430974428   -0.82368495557021
H           1.70651786525344   -0.70689387845922    0.64286264882742
O          -0.50576863128250    0.29248707747469    2.56571319468231
H          -0.27007316837444    1.13389540008258    2.12176985655008
H          -1.47599882269795   -0.10927153324756    1.44372655030853
H           0.24866756336024   -0.29380415923640    2.37406518342005
N          -1.95067177914558   -0.36630246523866    0.50681421953635
H          -2.95809300564440   -0.26424843077544    0.54571121398193
H          -1.67253716745544   -1.32887218742330    0.26493722715454
H          -1.52831602672742    0.29582521849086   -0.22715129910731
