    26
        -50.46173130  Gyration_radius:  2.49804607707 Dipole_moment: 7.259
 S           0.99426264663920   -2.02319156629875   -0.71096717663830
O           0.99385329527944   -0.74929870603780   -1.43193848600929
O           1.90071693476560   -1.94433850188762    0.43919639105060
O          -0.31991744106806   -2.48549437584122   -0.37338209126265
O           1.64143074254739   -3.08310350862564   -1.69178990407602
H           2.51081960679627   -2.71804873330458   -1.81776597812954
O          -1.02773396083401    2.32963068981082   -0.36504671823183
H          -1.59191272612521    3.04772387730745   -0.65298045819584
O          -2.52870996862943   -1.07309000660386    0.17818220251577
H          -2.17299777196731   -0.55624111210265    0.91254406908086
H          -1.86364238223559   -1.76475646026823    0.00766164707711
O          -1.24926445074438    0.89159890687372    1.86828074229070
H          -1.21023297066419    1.46725442449105    1.06614547033467
H          -1.84730127698859    1.31533766264342    2.48508284978706
O          -1.44191518531750    0.29943829837746   -1.85312874138643
H          -2.01495306250364   -0.23898066273024   -1.26225718653236
H          -1.21044333100032    1.55835884440988   -1.00882294156857
H          -0.57622972998150   -0.15476330396173   -1.84474041905114
O           1.63605993966394    1.66801292404906   -0.51283618289687
H           1.61055718675804    0.94893729049893    0.86391433148644
H           1.51538801729873    0.84200770453885   -1.02815633271158
H           0.77260994934427    2.11542813322669   -0.55527916567522
N           1.41976315299827    0.25715018622337    1.66544321712650
H           1.61087372995998   -0.71384688158699    1.23367328175546
H           0.42413366840699    0.34547161270677    1.92611617946356
H           2.02478536758926    0.41880325408898    2.46285141039256
