    26
        -50.46824854  Gyration_radius:  2.38812142865 Dipole_moment: 4.306
 S          -0.69047232921939   -0.79189810410741    0.75359985092375
O           0.29778156169258    0.09050261660722    1.39151278837564
O          -2.00059356274656   -0.61415651362602    1.36520933591755
O          -0.86721244732805   -0.22644393502326   -0.70496904555398
O          -0.24313953277746   -2.15690082060963    0.65333093158507
O           1.19212309100187    1.97831610808738   -0.31123621551214
H           1.61790400319264    1.49197797069343   -1.02396144227151
H           0.98393921460892    1.30979961446199    0.37109254757001
O           0.39789469101719   -3.08987162876073   -1.77014107796268
H           0.14922973852179   -2.85984107262980   -0.85123587131216
H          -0.36752662912154   -3.52046548471331   -2.15220071262736
O           2.45022236508243   -1.29903920534239    0.64410246980644
H           2.15979737388053   -2.21219344473367    0.72326693856618
H           1.76558113105777   -0.77912410326294    1.10566052246843
O          -1.34739421339916    2.52839093159568   -0.79651022594469
H          -1.64278221947793    2.27780864649461    0.70792834684300
H          -0.35961463843716    2.53634117814531   -0.74398975524818
H          -1.55358106590598    1.66364774163734   -1.17499434121856
O           1.45168043066276   -0.61221669589708   -1.71863755635727
H           0.02955337536162   -0.34265824017406   -1.16560391031508
H           1.99805968669519   -0.82149313885657   -0.92066697326088
H           1.24548233371834   -1.48760737185620   -2.09284472630060
N          -1.68102056568490    1.87889837558755    1.70932750314890
H          -0.72250383321692    1.81048347341291    2.06020681501014
H          -1.98226330964145    0.83305412075982    1.61383953335982
H          -2.28114465954093    2.41468897211274    2.32791427031273
