    26
        -50.46173126  Gyration_radius:  2.49805096237 Dipole_moment: 7.259
 S          -1.64375494840091    1.62950516096165    0.47956391283607
O          -0.21906560588145    1.70278259050535    0.80754794087704
O          -1.83318075890336    1.81602561807173   -0.96268741573943
O          -2.28557040501431    0.45552685274996    0.99397870239457
O          -2.31733818532550    2.88719604865890    1.16416670414108
H          -1.86404877097661    3.60321714768358    0.73207004760442
O           2.24698523025764   -1.19953274947640    0.35903495133818
H           2.97142293931852   -1.69255100374015    0.74500290047206
O          -1.27244244705342   -1.98835602471367    1.41670706765019
H          -0.96643600657344   -2.16000736814651    0.51679779847302
H          -1.83007237464739   -1.19201282586194    1.34858716854546
O           0.20702974931182   -2.16268101738800   -1.06056199048883
H           0.38498448683806   -3.06129619371995   -1.34069216084854
H           0.99281288166563   -1.86379549322842   -0.54137797937263
O           1.86733316192767    1.26776949839576   -0.79188876231114
H           2.23886196517767    0.46131613434200   -0.39298594312319
H           0.77835888672675    0.73104177146143   -1.76105809110659
H           1.22070446683713    1.59804307879632   -0.13219589687411
O           0.71371242732970   -0.37827413921186    2.22503233013900
H          -0.01674364347081   -1.03320907204693    2.15494514515858
H           1.68537599601611   -0.87060252290016    1.14584675661625
H           0.34581324627922    0.44818226434605    1.85438213558678
N          -0.12975265049260    0.32963087018625   -2.17527276348067
H          -0.16090799322745    0.41581155048547   -3.18503775125120
H          -0.91456829181535    0.91428457663345   -1.71911973141059
H          -0.19951336588876   -0.65801476291890   -1.88078508581451
