    26
        -50.46173140  Gyration_radius:  2.49829909048 Dipole_moment: 7.278
 S           0.96876171340068    1.93636127077014   -0.95090627948457
O          -0.08394265336751    1.91560383993933   -1.97187593071424
O           0.37189927522249    1.81894165105914    0.38053156188709
O           2.01681398842165    0.98804834304491   -1.18961270583715
O           1.60254007854445    3.38454550193763   -1.02207507815870
H           0.83487573964999    3.93316763104261   -0.90127232793173
O          -0.76282720966891   -1.48692566607932    1.95579996540147
H          -0.77487418573078   -2.02663939413321    2.74660172970460
O          -0.45795955246930   -2.30685106257659   -0.56213957594893
H          -0.58050180668620   -2.06595625750000    0.38821738519249
H          -0.57260154613554   -3.25583698553966   -0.62493562388418
O           2.29665913904131   -1.49712905422960   -0.22837491328542
H           1.45499468271345   -1.85485330851296   -0.53911018199214
H           2.39156717627711   -0.63863928133545   -0.67982817762944
O           1.40194844024910   -0.13829546909273    1.90305246060506
H           1.14118974935642    0.66941827317448    1.41795523109786
H           0.10424934566015   -0.94951120670193    2.00021821969917
H           1.92265300054337   -0.66420796840728    1.25525045374770
O          -1.99588921640132    0.79716053564847    1.05082294437365
H          -1.99302979200344    0.30407792295817   -0.42257241179528
H          -1.71998370006002    0.01261016039014    1.55669756716863
H          -1.17834471064270    1.32990912685276    0.95021714475999
N          -1.69415691547616   -0.00070548600002   -1.40995234511475
H          -1.00989716115057    0.76937699297780   -1.73373809444156
H          -2.48177108498422   -0.06863957430901   -2.04480105498543
H          -1.20237278430861   -0.90503054531491   -1.32416998247521
