    26
        -50.46272401  Gyration_radius:  2.48203496605 Dipole_moment: 6.095
 S          -0.56432260819647    2.15437966720887   -0.71745216521796
O          -0.33485325937892    2.12388749400364    0.70615614589464
O           0.55938906063741    2.55602187253197   -1.52434809461331
O          -1.16258439642602    0.88092864991486   -1.16351797258467
O          -1.69032720723840    3.25057879878774   -0.98499256222422
H          -1.34924328143735    3.66595486816451   -1.77011637366996
O           1.80182766941517   -0.92011460619207    1.22415168024211
H           2.70206141161045   -1.08584330805441    1.50738022390342
O           0.07599444079871   -2.67028229069124    0.16172887882866
H           0.38483446550753   -3.57214700086777    0.25327148069946
H           0.76149641024670   -2.08838417117599    0.56679379166397
O           0.27823384421905   -1.14219204844217   -2.26941698072627
H          -0.32284367332402   -0.40406533579142   -2.06642329884363
H           0.12451149784672   -1.80557191543934   -1.58390766778508
O           2.04561017377814    0.42336078562701   -0.95384217087226
H           1.62907126034524    1.29178453359217   -1.11074092823869
H           1.88431497328952   -0.31785625892431    0.41841376559690
H           1.61329819763850   -0.17505845679659   -1.59826599243387
O          -0.21780035227151    0.31553215984670    2.60291832542781
H          -0.22010357477712    1.16332490581749    2.11115073901296
H          -1.22239472916505   -0.32916712637875    1.63489499782456
H           0.60942644760596   -0.11673893452221    2.32276890396571
N          -1.75172601789470   -0.72371485186190    0.77859505294552
H          -2.74481120796795   -0.82392481696480    0.95341257675701
H          -1.31537377987187   -1.62198785215794    0.52324268747325
H          -1.57368575499599   -0.02870477124044   -0.02185504303229
