    26
        -50.46911883  Gyration_radius:  2.45470878949 Dipole_moment: 3.991
 S          -0.23544245155663   -1.99851436364888   -0.98251910584306
O          -1.21379588372630   -1.45754276753315   -0.04886452804420
O          -0.53529859734841   -1.74375554525479   -2.36150723447319
O           1.11670959972735   -1.58702474458801   -0.58718907195521
O          -0.27295875286325   -3.57909007853117   -0.79928895559682
H          -0.31029164553044   -3.88639256808890   -1.69967019584640
O           1.54325823346193    2.15647672290597    0.49221593837734
H           2.18612605044963    2.85272224318902    0.35604938105219
O          -1.64649028226028    0.69856897197617   -1.50116977298598
H          -1.58629242679624   -0.11344700525122   -0.95301129645090
H          -1.92169428658549    0.38694822651784   -2.36668116954463
O          -1.26278697747491    2.13665043259251    0.91157294827537
H          -1.56542462343458    1.83585737228979    0.04433681770101
H          -0.31870986215613    2.32871986541871    0.81288845134003
O          -1.21931029575719   -0.15095849407838    2.29377297097257
H          -1.40161756349061    0.75109655336817    1.93875170395794
H          -1.46637476892114   -0.75363252926522    1.56919630740795
O           1.06402474760624    0.87217172786481   -1.70283279852285
H           1.22249005724625   -0.06489436496028   -1.49548512780499
H           0.09498161783811    0.94089734231051   -1.80587599644146
H           1.40223532245600    1.72076280523053   -0.40210006778802
N           1.29147626912260   -0.27244860577380    1.67777392357670
H           1.54880429055769    0.69068587152240    1.38672094536288
H           1.26098658072875   -0.87367064705479    0.80360707738757
H           1.94934019902650   -0.64769585930110    2.35112102256141
H           0.27605544968019   -0.24249056185695    2.06818782332514
