    26
        -50.46361251  Gyration_radius:  2.4924883386 Dipole_moment: 6.658
 S           1.08511622906204    0.86828212162015    1.89914312880723
O           1.55667593746407   -0.50531332997415    2.08382719212800
O           2.00239092189910    1.66332611776165    1.11798918621457
O          -0.28413049000858    0.88614958519028    1.41269941915130
O           1.04995309967658    1.52600995507470    3.34246790781715
H           1.95444257146595    1.80578016064123    3.43491689162853
O           0.67602868953302   -1.04848444546980   -1.93664481907961
H           1.23844026381231   -1.33109199860984   -2.65866786780381
O          -1.98333560522351   -0.39757975013363   -1.83962111949270
H          -2.39242340883558   -0.41711170309615   -2.70544548852065
H          -1.04871461964784   -0.65951094220546   -1.95593424722179
O          -1.13226527026833    2.12184848841467   -0.83721327978442
H          -0.89119777590054    1.86024729889503    0.06977565917822
H          -1.63709674130860    1.37566628782488   -1.19025446291546
O          -2.09287410293900   -1.00167267235025    0.88463594487297
H          -1.61531308330216   -0.22368341944616    1.23839720931292
H          -2.34024595333083   -0.76082695741913   -0.02088799526130
O           1.35660486554801    1.34383085965077   -1.42965830843031
H           0.49065139742512    1.80901903627069   -1.38463164401794
H           1.73429769527526    1.47411401813634   -0.53411284708125
H           0.98373941459447   -0.09489608064470   -1.71347151575218
N           0.26278841719984   -2.09334217339437    0.53645946169327
H          -0.75618296025898   -1.81760246472595    0.70251337179483
H           0.51374729738824   -1.82518276905793   -0.43626123363625
H           0.84075862035039   -1.48005302779237    1.20904937567414
H           0.42814458033271   -3.07792218515887    0.71093008072566
