    26
        -50.46371162  Gyration_radius:  2.50893194944 Dipole_moment: 6.021
 S           0.92730775045302   -1.66870938677482    0.41210051246234
O           1.01446027290691   -1.32140154048453   -1.00149525332639
O           2.06449010318338   -1.11722722618557    1.14172041072811
O          -0.34630221437588   -1.31899954202969    0.99964173857923
O           1.04711820020735   -3.23737740744486    0.50582486750611
H           1.90554641135346   -3.40212329966800    0.13015076865244
O           2.02575775676828    0.89944636701007   -2.11438501390852
H           1.82577727859967   -0.02857169753019   -1.87908640330707
O          -3.25519734854264    0.95513468907270    1.53258215339659
H          -3.19003206014301    0.53488688910622    2.39175468791020
H          -2.37869492299489    1.32632135054518    1.33925340675050
O          -0.58501258971946    1.29663634577134    0.75284455852386
H          -0.53894042686809    0.35630961879602    1.03583493433007
H          -0.79313589730486    1.20753706689765   -0.21748798761606
O          -2.76128472619616   -0.98917546564103   -0.40442358417852
H          -2.02427099665915   -1.35043270370124    0.11057335739708
H          -3.19549050169320   -0.34807561359749    0.18402657921628
O          -0.91268179278641    0.44770377948164   -1.70263049169353
H          -1.76722249575834    0.00740061174914   -1.50541241254707
H           1.21525438774249    1.22607391532621   -2.51958679427306
H          -0.26346119289781   -0.26876335578825   -1.57478573956594
N           2.02133840191509    1.39133966384050    0.48770122973154
H           0.99360730412880    1.58092029372513    0.68252535140866
H           2.18108045473558    0.39371007509958    0.82876785200722
H           2.15227614236027    1.37389850491937   -0.56155862054265
H           2.63771269158899    2.05353805750275    0.94554988235959
