    26
        -50.47086751  Gyration_radius:  2.41848370548 Dipole_moment: 5.110
 S          -1.50220307181531    0.27410770825420   -0.92347985296254
O          -0.29495286019156   -0.21057544174292   -1.61499288870253
O          -1.47877838677643   -0.15901609146505    0.47506422249880
O          -1.66873266781184    1.69064345066998   -1.07168138028998
O          -2.71445603582468   -0.45371905804049   -1.59842868378255
H          -2.60005436324536   -1.37926843358272   -1.33239680569339
O           2.21923743480807   -0.57170096133566    1.16345081120334
H           2.98028645151854   -1.03954130702942    1.50947093539702
O           0.22778402788275    3.02181687628565    0.27427714108092
H          -0.57900741963406    2.75982033850716   -0.21482226857513
H           0.15696562903953    2.56063285100812    1.14182913383211
O           0.15088591447988    1.14729514244612    2.16268021956695
H           0.93167792933777    0.58524871792080    2.07743042093119
H          -0.55245939363526    0.67479808371093    1.67974265007312
O          -2.05840692722068   -2.60427562578464   -0.03395246698991
H          -2.77246116548952   -2.95059651479871    0.50441194283959
H          -1.81851661777064   -1.72480639250978    0.34744336414764
O           0.79171267241655   -2.23425778302809   -0.29609276923888
H           1.66112095429330   -1.25192599431368    0.70210590471167
H           0.03173640436954   -2.75611511235205   -0.01675041223050
H           0.41087227955791   -1.55387786906027   -0.89121044044196
N           1.73171272707803    1.24020736087967   -0.82245700299144
H           0.96276474422265    0.67091548003165   -1.27801219741314
H           2.43953237005734    1.51062776142501   -1.49569892303180
H           1.21812495173525    2.09965545330763   -0.38649075613821
H           2.12561443859228    0.65390739056611   -0.06143990780363
