    26
        -50.46944605  Gyration_radius:  2.485010416 Dipole_moment: 3.871
 S           0.89599474841156   -0.72457442533534   -1.61055015725026
O           1.81528240506123    0.24703751183691   -2.14361486164057
O           1.38217829434181   -1.50856121690985   -0.49702020012347
O          -0.41662030785707   -0.13976603624791   -1.30345920739048
O           0.62982366236011   -1.75827199799667   -2.79357164929996
H           0.99620947346353   -1.30268068136590   -3.54428727665081
O           1.55494659524307   -0.26513260255047    1.92221880982656
H           1.82143247284539   -0.93487695175458    1.27368729434345
O          -2.19302762984623    1.81561781600176    1.68493493144600
H          -1.83742871429745    2.10866325594993    0.82177704556899
H          -1.80069194839982    2.38983650433024    2.34484214445117
O          -0.95745234472349    2.35344741744480   -0.68726758577583
H          -0.77596342696803    1.43395816375153   -0.99583190245013
H          -1.32994707087402    2.82017723777382   -1.43662180795453
O          -0.65555739432009   -3.06801971896682    0.28560516191027
H          -0.74561424111744   -3.81102279636203   -0.31136643569685
H           0.13959689652165   -2.58236863525852   -0.00984126280640
O           1.69795109151732    1.70741059804319    0.11659613776491
H           1.72654601559724    0.57996090132582    1.45485968362091
H           1.90539957572732    1.24337938874324   -0.71328413245118
H           0.88808960473565    2.20396005979686   -0.05606159353105
N          -0.97481879655353   -0.56543452426589    1.26499999737045
H          -1.31413165738771   -1.51800428870787    1.40478905873677
H          -1.61310274222086    0.18013450233131    1.60260888258444
H          -0.00293796446162   -0.45932284356209    1.69440341320198
H          -0.83615660679572   -0.44554661803441    0.23145552218496
