    26
        -50.45538145  Gyration_radius:  2.56576155179 Dipole_moment: 4.109
 S           0.09354216145583   -0.69110971535731    0.78777915857823
O           0.07211279421230   -0.63921675866140    2.33104141419916
O          -0.32208311088491    0.65393495636906    0.31822648179720
O           1.48250871451879   -0.92200797989618    0.39818944751512
O          -0.82030792482214   -1.70391640935516    0.31912203148907
O           0.65079152623724   -1.79894260929889   -1.95843506692929
H           1.21655121824027   -1.64616481620562   -1.18042838876465
H          -0.20607687179496   -1.98859756304523   -1.55300821365950
O           3.22859928200713    0.94740816113277    0.01664091495194
H           3.50155640182577    1.29523059978906    0.86755157245634
H           2.68105325787249    0.14201521459680    0.20908992947387
O           1.02030720938417    0.46307671749190   -3.21181540791906
H           1.83821716032799    0.33520052326255   -3.69663871902909
H           0.79327513154640   -0.42312392425583   -2.81453075218342
O           1.18860750862756    1.92405745732673   -1.14609178429350
H           2.09149911254382    1.66904576253632   -0.73671997289376
H           1.11275033566096    1.41044100185713   -2.04124603118228
H           0.48392880856395    1.42424205314961   -0.50028372510716
O          -2.34042220417129   -1.42085357252931    2.51835422086254
H          -0.86076972419892   -0.93812816687441    2.58443030333304
H          -2.78317627522518   -0.58833709859468    2.21920047526547
H          -2.14087262371717   -1.89985894990754    1.69969171070361
N          -3.02658538743986    0.88269068279584    1.31084386796549
H          -3.15201208677640    1.75326546789926    1.81181185371436
H          -3.70413728449856    0.85999403558978    0.55904748673634
H          -2.09885714945439    0.89965494019894    0.88817717289933
