    26
        -50.46627153  Gyration_radius:  2.44598992812 Dipole_moment: 6.901
 S          -0.56392890664081   -1.82805544365143   -0.55486912640604
O          -1.38097595976652   -1.71120599130601   -1.72826738611650
O           0.84145151241116   -1.49936637420725   -0.74618278833409
O          -1.08865867176190   -1.09631540845820    0.60336179531723
O          -0.60574974635331   -3.36063668283288   -0.14647162243593
H          -1.23797857785514   -3.68204414496489   -0.77932819366749
O           0.34611977759283    2.38593526542585    0.73487665110876
H           0.71933557773308    3.26586560280358    0.67973923836716
O          -2.28886348064858    1.34812843301828    0.22141890317471
H          -1.52927218243953    1.88315218219879    0.48640666722490
H          -2.03725362152091    0.42618148226831    0.39105578012071
O           2.76551119532056   -1.09957156430650    0.97612412374657
H           3.42890567606822   -0.61276540693157    0.48256705856784
H           2.12137130203509   -1.42196969442496    0.30245556977145
O          -1.57367932709372    0.92703067986940   -2.38983863385158
H          -1.60755223002474   -0.04371660495216   -2.35404801386631
H          -2.05660633254856    1.22324684518264   -1.59541359207380
O           0.86854989336595    1.10982859084149   -1.42971793480603
H           0.96365820143163    0.15707242816980   -1.25348458094328
H           0.02205043322015    1.17298956597282   -1.94341405628303
H           0.56729758254871    1.93029783199997   -0.14342654572388
N           0.67399240821958    0.11324236674987    2.07004098042817
H          -0.07194249925178   -0.43694028861671    1.53230375320711
H           0.61016901737787    1.09980537397772    1.72242471029387
H           0.51296154493242    0.05372811200329    3.06931736577083
H           1.60108742364738   -0.30391715582562    1.79236990737454
