    26
        -50.46379222  Gyration_radius:  2.52778497082 Dipole_moment: 3.680
 S          -0.15808246367272   -0.71490543077930   -0.19270772899791
O          -0.02035930685204   -1.80852180758207    0.73488103038670
O          -0.40400865997241   -1.08933096304844   -1.56235381701532
O          -1.37355497354198    0.17267545629738    0.22876842094461
O           1.01613696874170    0.20433090095586   -0.11482664520781
O          -1.65283492537781   -2.22338846329880    2.79300903582155
H          -1.02074584809467   -2.20046017708636    2.04421490391569
H          -2.42083064415325   -2.70174786359672    2.47819867874488
O           2.35784845918092    0.04646081540783   -2.47039193536838
H           1.98518708034761    0.06437542019416   -1.56849206047759
H           2.55409016901222   -0.87411530446950   -2.65240835871466
O           1.38397450807874   -0.10369404352008    2.52103991877511
H           1.35375377066828   -1.05966050668085    2.62011204712939
H           1.40326098645831    0.04683250107529    1.55845262968065
O          -0.06059203663448    0.71730567008087   -3.42539539606479
H           0.91056705255775    0.58795722675081   -3.42755920416682
H          -0.37426668511134   -0.06831098236707   -2.91866288586582
H          -0.21701126641764    1.67663898220871   -2.30123799029278
O          -1.21865249316893    0.42576927595072    2.72903704596991
H          -0.24053147040757    0.38359704963687    2.84300332795859
H          -1.35227033022723    0.29926272260725    1.25391377921190
H          -1.53516316267389   -0.45961221227738    3.00149654407475
N          -0.23420493350141    2.12116442481359   -1.29054411678606
H           0.08092894311646    3.08574335858389   -1.26620118207693
H           0.40115592516286    1.46296325250558   -0.73109437024597
H          -1.16379466351973    2.00867067763950   -0.88425165132981
