    26
        -50.46147056  Gyration_radius:  2.59198619134 Dipole_moment: 4.222
 S           0.10815637125471    0.24436859894312    0.69649034274120
O           0.95578707906311   -0.53312123651486    1.61705776293980
O          -1.21041609837239   -0.60747741788589    0.59729070289683
O          -0.22224132697062    1.55913394213176    1.19091427252402
O           0.69372848195681    0.24505013958331   -0.63680901604483
O           3.39406121616995   -1.09195616793816    0.59986391522305
H           2.57866706126220   -0.82769081152942    1.07105266606882
H           3.88526226759803   -0.28291592619800    0.44956108826027
O          -2.79479723412978    2.38057874077853   -1.56559738304943
H          -3.19825979256783    3.23258100386260   -1.73800750780797
H          -1.81910668336076    2.53409769874775   -1.55993451069472
O          -0.17485671297070    2.72721801609158   -1.22181221236614
H          -0.16495211348666    2.66602197280114   -0.25211793039642
H           0.24966859153339    1.89603930132160   -1.47978722686380
O          -2.87825018752081    1.28531452816138    0.87248626987933
H          -3.00268099846967    1.64869247482223   -0.03544292892685
H          -1.97752902385266    0.04808507517183    0.68408551901719
H          -2.12417708010560    1.76670414315624    1.24592273970420
O           1.80275653438404   -2.02177664671241   -1.35557119228865
H           2.62714163883540   -1.85916958100873   -0.85278149637136
H           0.96219790190157   -2.66255716138491   -0.30165929047335
H           1.35781404868483   -1.14196939831258   -1.32723976489099
N           0.36839173294430   -2.82162149616257    0.61247253465945
H          -0.62569057457892   -2.74161511959343    0.40396378039761
H           0.61894994977048   -1.95207415751537    1.19693977137964
H           0.59037495104251   -3.68994050480223    1.08865911447212
