    26
        -50.46361235  Gyration_radius:  2.49245711117 Dipole_moment: 6.661
 S           0.81740056004759   -1.90929389063511    1.10622219846707
O           0.94863358190106   -2.46263755635604   -0.24281575859215
O           2.02074657587536   -1.24451180473502    1.54628722850549
O          -0.38637622736064   -1.10361812826892    1.22220759602596
O           0.61618124260781   -3.14686888230032    2.07833076232146
H           1.51868505071470   -3.40935295355692    2.22471256221614
O           0.83775586479187    1.47353840075267   -1.56000143443436
H           1.46891523914590    1.96628916395309   -2.08566173718103
O          -0.47387531229208    1.47836080563331    2.01902137796182
H          -1.03500541899584    1.79782115930140    1.29835050942841
H          -0.48675993341645    0.50735131357769    1.94088725218869
O          -1.59253904374212    2.16500901440572   -0.50149225967909
H          -1.80655924384831    3.08540864824025   -0.65772605628708
H          -0.72794540951152    1.99375892615685   -0.92436698032657
O          -2.39136670995917   -0.50997981291076   -0.43370695172779
H          -1.84985044705426   -0.81748497258511    0.32174083577122
H          -2.38905869451304    0.45727939653479   -0.37390747764103
O           1.87113389881080    1.27595934782995    0.75003535244903
H           1.28009632527160    1.36582201022754   -0.63993529137373
H           1.12856815506814    1.53612625661667    1.34103409250094
H           2.07152476119517    0.35597111347430    1.02407207144017
N          -0.28867077375390   -0.97102072810239   -1.92642315703171
H          -0.36841814101448   -1.36417829618896   -2.85715272035840
H          -1.24156708352107   -0.82339691192468   -1.46580385650358
H           0.24838809867516   -1.63767317340596   -1.27087774515082
H           0.20996308489020   -0.05867842573640   -1.93303040298829
