    26
        -50.46229166  Gyration_radius:  2.41130985639 Dipole_moment: 5.649
 S           0.29507606387453   -1.88841113819855    0.65699593935094
O           1.60118529740351   -1.59397864231194    0.07482366945278
O          -0.39169786639591   -0.65979625625429    1.03551214863366
O          -0.48699754295947   -2.80275721404497   -0.12832609561462
O           0.58371788587658   -2.62321846381334    2.03919123779937
H           0.60974712258149   -3.53824990490489    1.77940106921471
O           0.34703263398791    1.33316046472784   -2.09497789953191
H           0.53767319810776    1.45465604399643   -3.02581141948182
O          -2.94291951221550   -0.37041486126942   -0.06430059575722
H          -2.96325915908576    0.57581079803124    0.11573494367326
H          -2.23523464505805   -0.72969428306980    0.49138641362337
O          -1.11318983445126    1.91892519162206    0.26243909421894
H          -0.80517700290957    2.04748644298788   -0.64150159206859
H          -0.93303706252598    0.98585641491579    0.46198578580753
O           0.81611839598575    1.49391635670549    2.19121374573001
H           0.10718257119155    2.08154136374235    1.88725281659659
H           0.42008750690177    0.60502791209223    2.14820246184033
O          -1.00349868952202   -0.88365276089155   -1.91363011554927
H          -0.14632143174362    0.46443842665586   -2.03350020943263
H          -0.70783916644796   -1.67161367583868   -1.42537744538315
H          -1.86882333634844   -0.67765142762570   -1.50819869651945
N           2.08093065874669    0.92283673741693   -0.06837750501640
H           1.49592941399338    1.22825902611310   -0.87779566733059
H           3.05474151325639    1.17587971916924   -0.19174839576684
H           1.68615351814722    1.29809034108669    0.84126883689550
H           1.96241946961138   -0.14644661104219   -0.01186252538466
