    26
        -50.46221185  Gyration_radius:  2.43070189078 Dipole_moment: 5.167
 S          -0.79307553905598   -1.68913009919726    0.80398803640070
O          -1.12412863445840   -0.43883544880449    0.13429349211225
O           0.20679252063573   -2.43281733980820    0.04163267593215
O          -0.45565284969918   -1.55238070116524    2.19659957882707
O          -2.12728764093069   -2.54995141899578    0.75096903233680
H          -1.99258717613315   -3.14837869035392    1.47794100913194
O           2.18066480545027    1.11265547288554   -0.04840518201073
H           3.09354258392642    1.27608151221800    0.19137722756352
O          -1.58558924326396    1.69225317050198    1.82035189880394
H          -1.65209083856939    0.83356929785005    1.37142550994916
H          -1.61280748677163    2.35672420599811    1.12501759289903
O          -0.36264998499610    2.00228075281587   -0.89415143994424
H          -0.63775208824178    1.19856055561173   -0.42048739128492
H           0.57991266497959    2.08759232803421   -0.70957585089800
O          -0.97198023653131    0.10538153572926   -2.70168833942563
H          -0.86823557649436    1.01475519944019   -2.35702258328876
H          -1.53327823370231   -0.33097535847983   -2.04886075999825
O           0.93844696155129    0.70238321564131    2.17728048985554
H           1.70152803876228    0.94237980213491    0.82195604042896
H           0.15408161120085    1.27966801094965    2.24251178847476
H           0.56369205450034   -0.19379485228674    2.28747810721567
N           1.28419493333759   -0.85257401255896   -1.67311203092776
H           0.87816668707340   -1.56625989083270   -0.97827162844065
H           1.71405662681303   -0.08347374661457   -1.10889225404021
H           1.96537774602325   -1.28976793981159   -2.28397883871477
H           0.45665829459438   -0.47594557088405   -2.21837615095392
