    26
        -50.45966275  Gyration_radius:  2.5934715677 Dipole_moment: 3.921
 S           0.76788149010299   -2.12007987875423   -0.90925938069099
O          -0.53478859738071   -2.35464386154921   -1.50305089432307
O           1.47452469557426   -1.01074470766496   -1.54752446020763
O           0.75327087904807   -1.96699721061717    0.52728785414697
O           1.62121826583028   -3.42669113321377   -1.21838687888403
H           1.40208003812956   -3.59951830998941   -2.12865855575895
O          -0.17030323970671    0.80139383311410    2.18164480467809
H           0.05491591632512    0.75185581959306    3.11115684790462
O           0.89711465198467    3.10776035238192   -0.80455438000399
H           0.93656414780619    3.98548411319011   -0.42255484075883
H          -0.03105547721601    2.78860061895075   -0.66565699495232
O          -1.39471175595017    2.06653618345652   -0.03049626285240
H          -1.68067386713312    1.25114438001685   -0.47750860443854
H          -1.12985732286623    1.78790122405701    0.85676211024029
O          -2.16335248914285   -0.40587113818965   -0.98612389772707
H          -1.52410154349656   -1.12082476575974   -1.23802878433390
H          -2.90432199362198   -0.49279542038640   -1.58784125724231
O          -1.56757478106942   -1.28297285000383    1.57690487204707
H          -2.04439022517244   -1.02072987747245    0.77352328930145
H          -0.76730822525314   -1.74652492021750    1.25100187804228
H          -0.75107434185715   -0.00310659255252    2.00312735374209
N           1.76469411078097    0.80755107081420    0.26045479492024
H           1.06029476354108    0.66294737003863    1.02050983052024
H           2.70585155690850    0.75490550426851    0.63451143081831
H           1.64507940535138    0.04571624361985   -0.48998522217838
H           1.58002393842098    1.73970396287703   -0.18725466195576
