    26
        -50.46229093  Gyration_radius:  2.41112126887 Dipole_moment: 5.681
 S           0.70259360802696   -1.88916686513809   -0.14127234576543
O           1.92571656612402   -1.16681190086142    0.19651032842907
O          -0.47335893010003   -1.15727417483766    0.31176857677756
O           0.65675850812613   -2.32447538050506   -1.50971564711308
O           0.71209435287199   -3.21023218285052    0.74681646357035
H           1.18341943138774   -3.82336790999159    0.19233433060243
O           0.57712517057034    2.28531731413725   -0.85593897711944
H           1.03805549181389    2.91227212713832   -1.41452928149885
O          -2.35851737091852   -0.64106712903429   -1.68572945039941
H          -1.82688356368405   -1.15406965335993   -1.05899515640268
H          -2.78719539032136    0.04674988222526   -1.16482320497369
O          -1.75265770140739    1.31476726857171    0.43488423539749
H          -1.20433497281950    1.94923028679569   -0.03978535215600
H          -1.32895250009022    0.45327793728983    0.28871446123125
O          -0.65594449191862    0.16263761034488    2.69097867531749
H          -1.36462931434509    0.72741196265664    2.34566390558668
H          -0.65306999732438   -0.60488319711451    2.09136406113437
O           0.16705017016911    0.17336839856857   -2.31979336459914
H          -0.79713799319313    0.01764913550209   -2.36316968421583
H           0.45058812633087    1.46748478320090   -1.41883271634262
H           0.52935671460497   -0.70953382940112   -2.13019815585640
N           1.46575909851936    1.06335614260659    1.37956165902551
H           2.25105548622844    1.46099760440428    1.88228461471399
H           1.15125070863950    1.68282277942140    0.59975947737192
H           1.73525917349574    0.12852686751544    0.91668192521432
H           0.65659963920102    0.83501215269546    2.02546062206899
