    26
        -50.45865072  Gyration_radius:  2.64758842263 Dipole_moment: 2.963
 S          -0.45760920458077   -2.27901224272583    0.10171577462540
O           0.92914569480694   -2.07521334660680    0.53296389195701
O          -1.36236546483608   -1.49424160252025    0.93871894069041
O          -0.63008191917145   -2.07616664113179   -1.30867654156902
O          -0.80413336321961   -3.79157205764815    0.41755913159471
H          -0.95558180432889   -3.74720234267363    1.35539934457875
O          -0.66492287814491    2.22216352123358   -1.15809102825458
H          -0.07532845700759    2.92754174490758   -1.42933111914260
O           2.03230061729072    0.03158024018587    1.75745164250752
H           2.62086727919670    0.25897808484700    1.02984337697457
H           1.69606329001649   -0.85725851026381    1.52180871232780
O          -2.42318803227618    2.83380303765721    1.04722990735341
H          -2.04572853483263    2.78565721182412    0.15824449334967
H          -3.36848666409485    2.71477801367322    0.94804434374967
O           2.39334658696306   -0.61637226904434   -1.10937167170885
H           1.83840077786562   -1.21876277389040   -0.56056463293595
H           2.92760679809842   -1.18961402982995   -1.66124009765405
O           0.17131063786940    0.17708636104978   -2.49021650517137
H          -0.28946876253576   -0.64139673949883   -2.22126507533382
H          -0.44599839398390    1.44446779829975   -1.75588108177815
H           1.07139030301060    0.05327862520911   -2.13481295798815
N          -0.42501137047436    0.91947556090356    1.21814788554490
H          -0.98995788340143    1.50343964303393    1.83708166160049
H           0.55223209413601    0.75811927956760    1.56475406354242
H          -0.87787893794739   -0.03840165259465    1.11163601042991
H          -0.41692237844181    1.39484509604610    0.28885152071113
