    26
        -50.46459553  Gyration_radius:  2.48550632029 Dipole_moment: 3.628
 S           0.38147813108486    1.60649790674438    0.99996197571277
O          -0.62373426158521    1.76184311547842   -0.02927155163042
O          -0.11922468108143    1.05314501484006    2.23559802828787
O           1.54350023539878    0.88277423552822    0.47016461671789
O           0.92356101103275    3.05247325882553    1.36803019833632
H           0.39596921473923    3.24241250203391    2.13589462665809
O          -1.00982131352869   -2.10072705561853   -0.49072175831712
H          -1.15547995740493   -3.04581217311613   -0.54576716521699
O          -0.95213361152792    1.32580673321719   -2.73167463973531
H          -0.78377381111401    1.99646467109695   -2.05512000232537
H          -1.76436662671988    0.88236916510815   -2.39490444324941
O           2.40161487505106   -1.37245749399436    1.60130112312297
H           2.89606089836807   -1.17526744766443    2.39818067938526
H           2.18257396931165   -0.50778874358899    1.19604351095038
O          -2.62413002697863    0.15144016907525   -1.02514171966767
H          -2.27743213462735   -0.73044184202250   -0.83096252907205
H          -2.12634747654853    0.75478289064697   -0.44982142174685
O          -0.28874907771471   -1.58445687601579    1.92305182421408
H          -0.79216804199027   -1.90866457341769    0.47522747231698
H           0.67500214830598   -1.74050376573786    1.89751864608647
H          -0.37292414581159   -0.63132250525794    2.12852677073747
N           0.71634692001127   -0.39798422580915   -1.67156288059803
H           1.46696389242012   -0.77425737859335   -2.24063251256367
H           1.10619021458396    0.13647214405304   -0.84618608656780
H           0.09349996698624    0.28356007962367   -2.22182781713972
H           0.10752367932689   -1.16035780544337   -1.29590493469405
