    26
        -50.45865146  Gyration_radius:  2.64829462591 Dipole_moment: 2.991
 S           1.65735339137817   -0.93878531702909   -1.33975625517223
O           2.12695677987079   -0.67823148311053    0.01910757392592
O           0.51838639827208   -1.86228594974425   -1.30844598921735
O           1.38738911046294    0.24190395226574   -2.10988298185643
O           2.84046747510239   -1.71674246079867   -2.04885864879372
H           3.12542944109516   -2.28810282760612   -1.34401922781035
O          -0.94420381039587    2.23515032760957    0.90319902700494
H          -1.86880251616139    2.45674754074932    1.02481671930228
O          -1.27618737215074   -2.27648178542599    0.63093543143456
H          -2.03106053238086   -1.96032533795098    0.12333883030576
H          -0.56310014364843   -2.36565108785339   -0.03405900809533
O           0.58581253841526    1.90119866094013    3.32587350121731
H           1.38162144416399    2.41616844996909    3.46415548877094
H           0.12443182242288    2.30427299041791    2.57765558179669
O          -1.81784197245174   -0.76189745496528   -1.85709331521361
H          -2.04802704510558   -0.93159691843666   -2.77185506889581
H          -0.92080960300651   -1.15148458327183   -1.73242721136874
O          -0.76003979194278    1.74802006904436   -1.62353095108675
H          -1.34019918386761    0.97017328508414   -1.72459014117613
H          -0.81343679826055    2.16560477229023   -0.09088050237277
H           0.12213758967042    1.40125186791114   -1.86032938856065
N           0.09403803776620   -0.18916081882344    1.57123190028556
H           0.35448186205216   -0.04600724090620    2.54837615928892
H          -0.52888359889277   -1.01942646602767    1.41739066110041
H          -0.37346874170741    0.68986246531009    1.25751737185901
H           0.96755519920624   -0.34417465965140    0.98213046333906
