    26
        -50.46253678  Gyration_radius:  2.45941121275 Dipole_moment: 4.989
 S           1.18103904394451   -0.72322022088043    1.53671276224469
O           2.43838045976811   -0.06958090975954    1.28624489123204
O           0.01612452940692    0.14046593586489    1.42966454669054
O           0.99011889777745   -1.94407016858762    0.75644814438279
O           1.21568135722114   -1.17945070601049    3.06175823907585
H           2.13058742412688   -1.41468957101926    3.17654565790807
O          -0.41957008366652   -0.15433975961404   -2.35792068986925
H          -0.26102886514341   -0.18178832605082   -3.30212587280394
O          -1.23573455314390    1.69778760209071   -0.37948434220517
H          -0.73999493189217    1.20018397525334    0.29811251865092
H          -1.11933106079745    1.19908629687164   -1.19998488566348
O          -2.58814485646954   -0.34558784405252    1.18585279258287
H          -1.72087321955066   -0.18922420372528    1.60929128453803
H          -2.78311392191123    0.48630886177613    0.73595910936101
O           1.16808572989759    3.00173759651547   -0.53349561562010
H           0.21583352834378    2.78435793099055   -0.49947770969581
H           1.47899961367581    2.99071959258887    0.37400394536362
O           1.82565614626783    0.47487561727576   -1.25568278988934
H           0.47491173476674    0.03652428160296   -1.93774839601683
H           1.73641959359657    1.44654402489952   -1.14735839399111
H           2.12525825831900    0.15766646207526   -0.38499773023911
N          -1.24936802729437   -1.90404709990003   -0.50489978967106
H          -1.03296955694568   -1.32643820546609   -1.34721728127258
H          -1.60716303990745   -2.81851384745314   -0.75661197717898
H          -0.32006620844476   -1.99043648366923    0.03731695263879
H          -1.91973799193737   -1.37487082161888    0.11909460944375
