    26
        -50.46229155  Gyration_radius:  2.41158581197 Dipole_moment: 5.649
 S          -0.20532613172664   -1.09073005720053    1.68919306877459
O           1.21954381685672   -0.77741929765768    1.74214719124330
O          -0.98770177015373   -0.35614413236334    2.64469907531336
O          -0.69723612532413   -1.03342286659381    0.31825717638228
O          -0.33532670063828   -2.62475010328646    2.09372035542032
H          -0.43897829385899   -2.57483444845438    3.03830085434456
O           0.98851211241900    2.19345317561906   -0.70407894207188
H           1.37399534952962    3.05813055027647   -0.55796469441901
O          -0.74634867824464    0.41171674159584   -2.06455170368898
H          -0.25573496706764    1.22820468242420   -1.91942732769606
H          -0.79062538524780   -0.01635479841451   -1.19409958900234
O           0.66451194072042   -1.95306311147738   -1.85754353869543
H           0.11827766096310   -2.00976666483219   -1.05313127059654
H           0.15377681496718   -1.37820069298807   -2.44817128019821
O          -2.89374909139244    0.65145384803809   -0.05921478633194
H          -2.76159541767652    0.68529368930088   -1.01290836367263
H          -2.38532552811496   -0.11285361816805    0.25073987879493
O          -0.78232049549398    1.86322479526738    1.17329840296408
H          -1.65061658099325    1.71705917815752    0.74870713530342
H          -0.74241026887775    1.16534261175393    1.85029267252524
H           0.33025566878770    2.06486003285380    0.03902146476835
N           2.19524209791702   -0.21594026416745   -0.56411570074875
H           3.20516546992601   -0.26659764486089   -0.63543302669451
H           1.71731658110955   -0.91023866790728   -1.20710320663281
H           1.86381019323150   -0.47002567522697    0.42880990654615
H           1.84288770838057    0.75160271832670   -0.73944376193742
