    26
        -50.46627107  Gyration_radius:  2.44606716516 Dipole_moment: 6.901
 S          -0.95569620779286   -0.03273284617599    1.74538211232488
O          -0.98388865685509   -1.38651970132771    2.21893021522449
O           0.36051513250687    0.59000366849548    1.73699743806260
O          -1.59524055972798    0.14850425085049    0.43776626793507
O          -1.83221877151361    0.80458884447683    2.76913483830844
H          -2.14526801161837    0.10336654658136    3.32923883262840
O           0.94132032899356   -0.19371957056456   -2.32882135764917
H           1.63175659872057   -0.33068395155421   -2.97776583879870
O          -1.29601035299072   -1.79549451453055   -1.48414065396620
H          -1.57622868294286   -1.17084668666145   -0.79615837013832
H          -0.60526878750056   -1.34420006948680   -1.98674748707626
O           0.30291728290265   -2.96733859374048    0.40718769853312
H          -0.31679373713415   -2.84075591553356   -0.33576903366814
H          -0.15415029746901   -2.59310351056204    1.17901815212020
O           1.20264140553088    2.81748741321170    0.66131759121586
H           2.15557471202196    2.71511968877537    0.61546142738285
H           0.88626138899372    2.07678495074263    1.23048875787269
O           1.81802638834792   -0.85752481145270   -0.01036642395792
H           1.43181845668457   -1.76017781234760    0.13247751794588
H           1.33075492062589   -0.48106612953042   -1.43771176037323
H           1.40130197950569   -0.31342953331255    0.68124078333155
N          -0.40558844965757    1.78702006141132   -1.18143686617850
H          -0.96440471861656    1.16504862367777   -0.51134054998451
H           0.26125733705421    2.33870748688276   -0.58034341672013
H           0.13153316075073    1.13324267521496   -1.80004719394476
H          -1.02492186882027    2.38771944646037   -1.71399268043122
