    26
        -50.46199325  Gyration_radius:  2.60743591735 Dipole_moment: 1.304
 S           0.84913069189131    1.42316690846213   -1.27556440742828
O           0.20218021212377    2.07597146944345   -2.38867506963129
O           0.27277711628861    1.75553344156356    0.00919713145369
O           0.96436340835753   -0.02708371359869   -1.44008586265388
O           2.35616639877464    1.96597948981480   -1.27519007289437
H           2.38054304985362    2.54809233737047   -2.02903325707211
O          -1.01756022457862   -1.09983442890158    2.16657535240073
H          -1.56193451672654   -0.71222046170153    2.85307321529666
O          -1.70427878982453   -3.28469754776808    0.43488231177475
H          -1.17171543850760   -4.08079447042599    0.44310602813469
H          -1.44861151282130   -2.77385135450559    1.21603434549532
O          -2.20291332463293    1.68682455845701   -1.33247770670430
H          -1.42587922217932    1.87499056241759   -1.90031680377924
H          -2.05727637190377    2.23195428802149   -0.55359675990500
O           2.94940116622463   -0.48433014984951    0.29617880278621
H           3.52622166583379    0.26259924089813    0.12216810075166
H           2.27003662486603   -0.45079316917498   -0.40336305787783
O           1.11719606207110    0.34074801979115    2.11073961532940
H           0.80854244993178    0.98928402210120    1.44608477425646
H          -0.13424166431338   -0.61734272345795    2.21893824596777
H           1.87171388901778   -0.10031059035547    1.67352777495420
N          -1.38974099987051   -0.71266584967158   -0.48694530769871
H          -1.92380537495512    0.12636496796813   -0.82483582317406
H          -1.79686850810943   -1.61210696603879   -0.75492200863241
H          -0.42100505124844   -0.60545142783554   -0.88351837078938
H          -1.31244174554824   -0.72002646302977    0.55801881963481
