    26
        -50.46361291  Gyration_radius:  2.4925346499 Dipole_moment: 6.641
 S           0.68411587789493   -1.51320763402835    1.66778357075048
O          -0.41050027737572   -0.56574953426108    1.54014369935369
O           0.58524455017858   -2.65513506162260    0.79014898352232
O           1.97684263623447   -0.83561936959439    1.55712513455320
O           0.60413367642131   -2.08575075908616    3.14502624650012
H           1.05652652837062   -2.91603164910032    3.04099553819275
O           0.65173431529641    0.46066152987048   -2.16013990616432
H           1.03726301898904    0.34435357191963   -3.02925578871238
O          -2.42601693296659   -0.72960850805661   -0.25340677628186
H          -1.84078883709521   -0.76836528028234    0.52458331327078
H          -2.37461276014520    0.18559558814492   -0.56323956687883
O          -1.60555243593705    1.77061528406936   -1.32772355990315
H          -2.10738337362577    2.12805786183291   -2.06100117138743
H          -0.81198017852427    1.34054054300846   -1.70315219885299
O          -0.54923033730064    2.08067034347621    1.23856041676218
H          -0.64157653999528    1.16034591009192    1.55954322036909
H          -1.12422615211710    2.13996912846015    0.46074209890022
O          -0.33580235523279   -1.79322808781859   -1.53757453222599
H          -1.23596310523994   -1.55337812839085   -1.22033547019029
H           0.28896960871051   -0.46396859117219   -1.90088807123128
H           0.08043423631491   -2.21113780265495   -0.75418351782276
N           1.72404842634436    1.31865852742625    0.18372602765955
H           1.89662383576977    0.42808067369981    0.76645713459192
H           0.87582169767426    1.79160663038130    0.62965644186914
H           2.54236985240115    1.91657354215298    0.18448232626419
H           1.45950502495417    1.02545125153667   -0.77807359290820
