    26
        -50.45901850  Gyration_radius:  2.42437141887 Dipole_moment: 2.994
 S          -1.29715932831953    0.91602479742802   -1.21506117444618
O          -1.23037834813571   -0.49861646833766   -1.52747151675959
O          -1.90350227095784    1.14690094874841    0.09701451434724
O          -0.03837098967984    1.60770613349077   -1.36884115808734
O          -2.28570597156016    1.56186863389217   -2.26772517813593
H          -3.05897551310769    1.01411662040710   -2.18346352623502
O           1.87164913471743   -1.47417324013334    0.59619135787963
H           2.69252491001160   -1.95515974079589    0.70492459809385
O          -1.47554546936530   -0.51952367980845    1.93398567059343
H          -1.75004597096707    0.17849198029522    1.23319453770954
H          -0.51114838588629   -0.18475388548180    2.27029378842198
O           0.41116192791249    2.50459822622538    1.08232069635129
H          -0.48324207651962    2.76307842974798    1.31892592648281
H           0.35396540160316    2.25140900618770    0.13835079391378
O           0.83768226094292    0.26698257412198    2.41135165164964
H           0.81504670460566    1.16016061151084    1.98216380702534
H           1.34572699067994   -0.31696784322417    1.81424596597617
O          -0.71813694973883   -2.28710136947612    0.33117677522621
H          -1.25251054433567   -1.37150919772166    1.35803072094153
H          -0.94009456958725   -1.74960262045288   -0.46371435940171
H           0.24824597291988   -2.19861737112969    0.44103781670155
N           1.70936199385206   -0.54450881718677   -1.84367588911713
H           1.16558814380771    0.31065923753010   -1.71599125346312
H           1.10969418094826   -1.17447821134670   -2.36378525721719
H           2.50811701919532   -0.31962645318294   -2.42409797974198
H           1.87605173694968   -1.08735828131939   -0.33938133870446
