    26
        -50.46194837  Gyration_radius:  2.51159764645 Dipole_moment: 4.761
 S          -1.84356242161605   -0.39214447682751   -0.97578651976539
O          -1.98985004134478    1.01405676091231   -0.64448642069122
O          -1.06058589836147   -0.57874765661022   -2.19295461354460
O          -1.35754403161762   -1.20553506992097    0.11791135015022
O          -3.30193436041710   -0.92545001554846   -1.29327512604866
H          -3.65932958774692   -0.29109693557880   -1.90765791710068
O           2.18287570982588   -0.41718015239933    2.16167842461575
H           2.58088472815213    0.11415462877134    2.85171898241876
O           0.53255395678560    1.69062730444095   -1.15373289760956
H           0.60197514690726    1.74509277206687   -2.10874053722628
H          -0.39780054874529    1.44258911804811   -0.97833617930038
O          -0.91630949552992    2.36933651640355    1.47903176509310
H          -1.51010097805735    1.99121879335681    0.80981800317147
H          -0.14933151373419    2.67749399561272    0.98859230898425
O           2.48002304771731   -0.05961407434244   -0.43155238028593
H           1.88027489173177    0.68793686481273   -0.62852027381861
H           2.48991931540097   -0.14882915106336    0.55264062869964
O          -0.41190227990008   -0.12839332962106    2.44140145452800
H          -0.60698986044800    0.81802761868875    2.29445355193813
H          -0.85237342264941   -0.59275403121707    1.71123568274667
H           1.20079555059652   -0.36350438827599    2.30881228077714
N           0.84654743247396   -1.92988189272412   -1.09036923678374
H           1.20687345298275   -2.82510395513924   -1.40086034098601
H           0.20791128426215   -2.01501924162810   -0.28192928863975
H           1.63745210786631   -1.20997469662292   -0.83464515363433
H           0.20952781557718   -1.46730531567956   -1.79444756767807
