    26
        -50.45621030  Gyration_radius:  2.57211720905 Dipole_moment: 4.221
 S           0.78144456043140   -1.85450346361703    1.21032543746981
O           1.05945977934967   -2.49022801391085   -0.05403360716203
O           1.77265876645618   -0.84034047350218    1.56218721551291
O          -0.56823753405277   -1.31268909746864    1.31394949538105
O           0.88291653983797   -2.99164400617167    2.30682823515923
H           1.49640197669963   -3.58131515538543    1.88230701589890
O           0.81184289557694    1.10876883382576   -2.09339320980922
H           1.47259898361220    1.14402539593929   -2.78572536789149
O          -2.38665644409438   -1.24570492109096   -0.66887510687727
H          -2.80716349476619   -0.40568600863616   -0.47514161901356
H          -1.79809761596401   -1.43287087147818    0.08654346599733
O          -0.79830818519706    3.07578979878994   -0.74581840823343
H          -0.47587770419882    2.51368921660669   -1.46020415971908
H          -1.37535181731137    2.52717449693612   -0.20617966391371
O          -1.29254407879616    1.19361697613200    1.42564531545267
H          -1.06516436192797    0.23156224146596    1.40774377700127
H          -1.60332678020642    1.37578939851290    2.31348722475660
O          -0.09946538907214   -1.28845342610545   -2.13724968622347
H           0.42254716298748    0.17673010049688   -2.13803062667394
H           0.39306865420482   -1.80637201360773   -1.46906468157231
H          -1.02593135016276   -1.31607159699198   -1.83173725663325
N           1.26004207997874    1.46044228631567    0.51518846242879
H           1.19029388022549    1.35817985224173   -0.53200261683379
H           1.89363286280348    2.21403690754706    0.75969435463865
H           0.29985041522693    1.65972189843079    0.86581204461414
H           1.55936620835978    0.52635164472713    0.94774395623931
