    26
        -50.46272272  Gyration_radius:  2.48131439684 Dipole_moment: 6.081
 S          -0.92096749778535   -2.01868583715234    0.73738290774175
O           0.06937795673317   -3.00970137783347    0.40259183979539
O          -0.59265371894234   -1.15378714356477    1.84410287426738
O          -1.34588001946997   -1.21653546714596   -0.42608602393535
O          -2.21809233713431   -2.84431250274837    1.15950668991767
H          -1.98579974792409   -3.71262749659886    0.84743686774793
O           1.98881952589834    1.18676015217672    0.47836062512177
H           2.92008526178765    1.34555314070890    0.63850646780852
O          -0.11027465034234    1.39523473502431    2.22755410705196
H           0.75529563074416    1.43273505917616    1.78166949236355
H          -0.26490569201567    0.43655659689373    2.36147071852478
O           0.48916084128637    2.14949187609684   -1.52029970410039
H           0.93714353536570    2.85186148587023   -1.99259154846201
H           1.10117728129424    1.84394911853973   -0.80990236672943
O           0.31301240289263   -0.55896339157529   -2.47812337467719
H          -0.38048839980602   -0.91099701189608   -1.89311081161511
H           0.30255530638018    0.39938402036273   -2.35497269519193
O           1.88836503458496   -1.23297708309402   -0.38685397862072
H           1.51785895771503   -1.10122629223056   -1.28435517810977
H           1.92647392936048    0.21227491408379    0.22474204345958
H           1.33798562435716   -1.93762613169748    0.00335725702491
N          -1.57232982096463    1.31056498284172    0.07912844584771
H          -1.05982168489033    1.45214612209153    1.02064779177123
H          -1.54766824740781    0.25291688475567   -0.11160984916189
H          -2.52719137546555    1.64867965364567    0.10644942060081
H          -1.02123806624272    1.77933099321452   -0.65500203850204
