    26
        -50.46229159  Gyration_radius:  2.41105422319 Dipole_moment: 5.651
 S          -0.04258089764216   -2.01720469396031    0.10747858331236
O          -0.85943648061558   -0.85606878620834    0.43756648907647
O          -0.27598091567350   -2.57120009551238   -1.19745383041573
O           1.36687560537330   -1.75507649860805    0.38352766924952
O          -0.49636224283239   -3.13076478774458    1.15090296849074
H          -0.31921239841137   -3.93589221546044    0.67560891089601
O           1.35709215148639    1.79264115952783   -1.11006471977423
H           2.00194573997954    2.13668867221899   -1.72921371539435
O          -2.45925773445955    0.06624288436267   -1.65915673317345
H          -2.59672139441184    0.92154451824061   -1.23757019255718
H          -2.14027880364703   -0.52421497462528   -0.96037132935113
O          -1.13925003668259    1.90805743301289    0.22748474595079
H          -1.06501999703291    0.94026163037518    0.19813080724213
H          -0.40569728440734    2.23339019630912   -0.30600812008832
O          -0.49535650016870    0.71868028352884    2.63410743541379
H          -0.95477783795631    1.45713613066945    2.20514894302270
H          -0.78617859284082   -0.06319357833936    2.13136297392711
O           0.17601612558436   -0.18742688774716   -2.31780620134905
H           0.93044738216879    1.01441895386947   -1.57246746992468
H           0.19226525074771   -1.11103475840432   -2.01272683430173
H          -0.77851963136737    0.01740103562969   -2.36897060417867
N           1.78192793183045    0.61333035149593    1.27967613617390
H           1.70098105201418    1.20554778096033    0.42342307974067
H           2.66842819120394    0.75286554332731    1.75105014574961
H           0.95857039046963    0.77761401665674    1.92716305883327
H           1.68008092730076   -0.40374328357412    0.93917780341931
