    26
        -50.46753409  Gyration_radius:  2.5177324289 Dipole_moment: 2.710
 S           0.17009571753809    1.35853096273599    1.24862279390391
O           1.10776160054185    0.58514860382374    0.43227252338459
O          -0.04101426742962    2.68053844096332    0.70851506860192
O          -1.04365003743397    0.61858390955246    1.51566186202335
O           0.88518409375291    1.56442781276996    2.65712055963084
H           1.37721221932746    2.36609225085978    2.51371373371733
O          -1.80371332617419   -1.21922262815054   -0.30229568092425
H          -1.80111336421249   -0.57581566840694    0.42968001783602
O           0.22187656656713   -1.28928127639197    2.92143176316473
H          -0.34830462606051   -0.62043699017844    2.50299647309983
H           0.80444706680616   -0.79679922677673    3.50154128742792
O           1.08329258920827   -2.08582201329875   -2.44313678340481
H           1.64874118692523   -2.78142433447331   -2.77948956560864
H           0.99987301075775   -2.23782565870512   -1.48835479715128
O          -0.97986560473551    2.77583450286388   -1.78033133137378
H          -1.85257007573234    3.16640778529830   -1.71340236518563
H          -0.59285313540673    2.83371464126494   -0.87858021334850
O           0.72863957166077   -2.08060225542124    0.34686963540027
H           0.60811317845033   -2.29958768629248    1.28287933976512
H          -1.08165004139568   -1.83629317489163   -0.07911497307369
H           1.00270825765407   -1.14242190931738    0.38004545515755
N          -0.22071224048876    0.21133171609599   -1.83493295352601
H           0.25073260407605   -0.36720909539276   -2.53628391891978
H          -0.56743675207163    1.12994948119697   -2.16622039802621
H          -1.00143509067075   -0.36160173259916   -1.38962557840700
H           0.44564089855559    0.40378354285256   -1.04958194413547
