    26
        -50.47126124  Gyration_radius:  2.4292794125 Dipole_moment: 4.304
 S          -1.83961257659127    0.50141071318910   -0.13294321618930
O          -1.51750166368745   -0.90965882805672    0.05193966313359
O          -2.17987270377447    1.13360883709307    1.13327639163792
O          -0.81117693908331    1.20676664180640   -0.86392605683529
O          -3.14649967127935    0.55505863629120   -1.01758773874305
H          -3.81817698769724    0.29898495023508   -0.39433894854335
O           2.44572900492998   -0.36346990492382   -0.35005569115814
H           3.31599513849550   -0.63998317110745   -0.63823100556539
O           0.67705050260966   -1.27855616309610    1.52947069501137
H           1.39118440910412   -1.09028227832925    0.89148548741045
H          -0.14739943168794   -1.30002124697784    1.00121971070516
O           1.46672214409708    2.12449291409156    0.28009602442266
H           2.01163813995948    1.34738068987754    0.05370778604476
H           0.67848893993690    2.03852045958742   -0.28667939918858
O          -0.77919510503217   -2.49508029655974   -1.95178191840470
H          -1.16188201563475   -1.94592265752216   -1.23729250638713
H          -0.48750982790346   -3.30818659278397   -1.53609765062855
O           0.81770817076322   -0.33176818800722   -2.36252715321182
H           1.85966681150512   -0.38492498425056   -1.16688354820083
H           0.32474718652236   -1.17142714463801   -2.42505567965420
H           0.17984125346882    0.30435796811355   -1.98889959794353
N           0.14809606732689    1.15698836041580    2.32188933569186
H           0.75707964627017    1.69622229533046    1.62985586769263
H           0.42024891402808    0.13069026270013    2.21512385107797
H           0.24103276404065    1.49329822790853    3.27354851465554
H          -0.84640215068658    1.23150049961217    1.97068677316913
