    26
        -50.46147057  Gyration_radius:  2.5917491347 Dipole_moment: 4.220
 S           0.30288246977643   -0.02910883728300    0.68141836878927
O          -0.37477049679979   -0.78728500461910    1.74733679370822
O           0.89795276385678   -1.14885278605530   -0.24938547592352
O          -0.67936196875527    0.68717708579833   -0.12026543895249
O           1.38186182089004    0.79974912637844    1.16202118396209
O           0.95728828439499    2.77130305758639   -0.60479745354989
H           0.12666650287939    2.29495540117590   -0.74918466893572
H           1.30005721249099    2.34038255276565    0.19579208463669
O          -2.95939966188618   -0.07768731886167    2.07576243022252
H          -3.02013218979383    0.83652212842846    2.35681092343117
H          -2.00702576284423   -0.30027409972580    2.08922639137975
O           2.72082046180909    1.75947729509586   -2.32795530655552
H           2.02795244548691    2.20558682183128   -1.78349395495636
H           3.37665454441888    2.42929286865736   -2.52708715451976
O          -2.91160553828915   -0.62140916564416   -0.55537042691706
H          -2.13160296448273   -0.01948246822060   -0.60243144123595
H          -2.14206003670085   -1.86010319712903   -0.23781166168104
H          -3.28768502427013   -0.41330494646571    0.32447160390992
O           3.22049390001529   -0.16935866753706   -0.54455375061203
H           1.84832524347557   -0.86755307575328   -0.45774910444791
H           3.13592670054825    0.46066847079719   -1.29816312924350
H           3.00113392044799    0.34167117883285    0.24953158830682
N          -1.39193533118124   -2.54944647413622    0.18154996777595
H          -0.65157799828678   -2.71814634774727   -0.49787215110847
H          -1.79282985727458   -3.41330795855569    0.53242392486861
H          -0.94802945993295   -1.95146563960145    0.95977585762568
