    26
        -50.46245835  Gyration_radius:  2.53038453844 Dipole_moment: 4.469
 S           2.05337748041727    0.20852980378469    0.88813346854638
O           0.78634868482647    0.11300975502522    1.62812520251519
O           2.92545639215581   -0.90767351526735    1.17912881317992
O           1.81343155717702    0.41531108926651   -0.52124878857136
O           2.77204130145980    1.51416155198192    1.42695754159830
H           3.09854176746537    1.26534801911936    2.28693662295904
O          -1.58689503681359   -0.00046109823226   -1.92756197766566
H          -1.43323995147064   -0.14383307223091   -2.86163282112152
O          -3.12305512053875   -0.08058016743340    0.37405181318618
H          -3.98821628041342    0.33113947809032    0.38481573511153
H          -2.79080564624875   -0.00552572169439   -0.53426659234470
O          -1.26503165887387    1.83832450731874    1.29852951559070
H          -0.49933514687718    1.32229964067602    1.60406841963085
H          -1.97089690811267    1.18665494756063    1.15960800690456
O           1.95739495474799   -2.38046771016567   -0.76102969496773
H           2.18476521835997   -1.77988744064694   -1.47744284406955
H           2.43132202420140   -2.00285968817936    0.01628986954636
O          -0.22773402942769    2.01344242326709   -1.16573318221392
H          -1.07954202488037    0.85483933956567   -1.68912005685602
H          -0.61913866916968    2.18393616572930   -0.27914507962837
H           0.62155817963932    1.56140707152281   -0.98685238298385
N          -0.43284532427221   -1.51985183978222   -0.01093547371946
H           0.43053600896051   -2.02319099432976   -0.36349453526618
H          -0.87783987750773   -0.97888344841374   -0.79285016668053
H          -1.11299688149493   -2.14634288092634    0.40887057692237
H          -0.06720103331075   -0.83884622560955    0.71579804039968
