    26
        -50.46103483  Gyration_radius:  2.72959560887 Dipole_moment: 2.731
 S           1.06505445675730   -2.23999451165104   -0.36057331738770
O           1.71849808760017   -1.81457792687204   -1.59068998721301
O           1.50052687888095   -1.43397904152323    0.77107013651669
O          -0.38022097597684   -2.29625401000311   -0.46803984905142
O           1.55682260042281   -3.72367232984629   -0.09857818541624
H           2.48721072784571   -3.66537707794510   -0.29173761528073
O           0.44435284187660    0.84305711582989    1.70610884938207
H           0.73215158884186   -0.08945595371229    1.72942750655336
O           0.93053163463378    0.48623724712263   -2.47595137560123
H           1.25274796956141   -0.41299954268744   -2.19558431111679
H           1.00387298134293    0.50577253451114   -3.43091696492169
O          -2.05252841204507    1.79369611436851    2.42386407719169
H          -1.15889670514823    1.42310075854922    2.32292578146091
H          -1.94006911142347    2.67835110197147    2.77480436822012
O          -3.39481039882998    1.21077927123090    0.14567258272781
H          -3.01874702757082    1.49837978986233    1.00414663850152
H          -4.09950565713278    0.59572857052244    0.35461413807730
O           2.41658950133519    1.01952500298531   -0.08504608665839
H           2.35713142622217    0.07196083938819    0.12662451316034
H           2.11072380577493    1.09593427208774   -0.99690782683163
H           1.20036552821965    1.28043577316825    1.26398864854430
N          -0.96451286881666    0.24699925725584   -0.54010028027244
H          -0.45680859925999    0.56717583339921   -1.38122852378985
H          -0.89239810377248   -0.80783345454625   -0.52155252111694
H          -0.46666660663831    0.58912213293719    0.31552776735060
H          -1.95141555274205    0.57788824360167   -0.50186820300796
