    26
        -50.46877052  Gyration_radius:  2.51413338885 Dipole_moment: 1.697
 S          -0.02475900156774   -0.51433856012863   -1.85932702714358
O          -0.32894370297626    0.87705796592949   -2.11603776862703
O           1.15161997258921   -0.72162667441354   -1.03313572006768
O          -1.17731745565655   -1.24983439173225   -1.34937523195467
O           0.33390824470013   -1.15896406230492   -3.26189527449429
H          -0.35010601086548   -0.83538777407974   -3.83993411480628
O          -0.47022568166440    0.80653885978688    2.27887780792813
H           0.19672840711744    1.49794212041779    2.07553214864205
O          -1.43756165449414   -2.91798647451547    0.69113562055487
H          -2.31478651712788   -2.72753842077529    1.02992750373736
H          -1.37182682987158   -2.43647562884649   -0.16237833030811
O           1.91100917135656    1.88892478902646   -1.11642721317066
H           2.26051259514848    0.99335300965822   -1.04267502165267
H           1.05402722862456    1.74924305355360   -1.56140646033899
O           1.36398744939058    2.55018357204110    1.41061573316716
H           1.25324456113307    3.50111028231929    1.43652416219238
H           1.60627714392281    2.32807621555822    0.47982712134622
O          -1.99538156932940    0.85178113714101    0.07180308800479
H          -1.15328271526328    0.89238436526613    1.57793646851128
H          -1.65533876411634    1.50302368042956   -0.55069161154500
H          -1.86473994754806    0.00839451810460   -0.39742676339189
N           0.62215110639953   -1.39263284469299    1.46746381921425
H          -0.13805267745801   -2.10408255493308    1.36068247578543
H           0.19968518369579   -0.48829940127178    1.90303621522958
H           1.39635149262453   -1.74956182568238    2.01583662523393
H           0.93281997099387   -1.15128496592999    0.49151174797893
