    26
        -50.46361291  Gyration_radius:  2.49251035039 Dipole_moment: 6.641
 S          -0.76032722267122   -2.06102065997205    0.84457549187559
O          -1.12104703059759   -2.55717339957677   -0.46222149681356
O           0.64973996968506   -2.29539138034169    1.16005034400639
O          -1.11943104366793   -0.67177231030688    1.07520946216847
O          -1.59973078170908   -2.91377822307655    1.88605798677183
H          -1.61811389916219   -3.76016620806151    1.45223055965719
O           1.46511922981624    0.65168492068927   -1.65359378762663
H           2.00328381351330    0.61654481901479   -2.44518774723493
O          -2.22337745664661    0.98726017723547   -0.75117844089731
H          -1.62128896968289    1.73046730754087   -0.60501399067463
H          -2.03104210780092    0.35837118110995   -0.03234671622581
O           0.04034797721425    2.68723763287550   -0.49941762028584
H           0.06053838962804    3.48699413774416   -1.02606526247569
H           0.58375880380230    2.02119034625498   -0.96492067886085
O           0.19425874682716    1.45646067697091    2.00208968424186
H           0.02039259082715    2.09366727854703    1.29292547674348
H          -0.44657661604648    0.72995258652025    1.86054430468044
O          -0.66015470261355   -0.62047507816560   -2.20754499662508
H           0.62563974469307    0.10350596313874   -1.87431733769989
H          -0.79434420194790   -1.42946744835848   -1.66981628784521
H          -1.36491636846804   -0.01204168621202   -1.88887288988073
N           1.97864896114264   -0.11393789833940    0.90155581659150
H           1.47876222440225   -1.06089192498164    1.02702247520257
H           1.93697108231417    0.13916343881286   -0.10610366138648
H           1.39001500370576    0.59379532391723    1.44442055012936
H           2.93287385344247   -0.16017955297914    1.23991878246418
