    26
        -50.46469929  Gyration_radius:  2.37659795372 Dipole_moment: 3.560
 S          -1.56311859168249   -0.88122852924046   -0.51375707429300
O          -1.31576058728714   -0.01343376840239   -1.64828001727131
O          -0.92833011683452   -2.17802917904255   -0.63696489365262
O          -1.28172679046544   -0.21491434103584    0.74623750707308
O          -3.12797569402980   -1.15701881594047   -0.49179287843446
H          -3.25116362909960   -1.74019532866978   -1.23400645293052
O           2.20609299904659    0.32047003265066    0.80641244186294
H           1.71168198816302    0.68884732586243    1.56747421172018
O           1.34937699246266   -1.24354969362547   -1.84366468309577
H           2.00515627066361   -1.73529058698238   -1.34367678167059
H           0.49783291320930   -1.64693685753990   -1.62384847646041
O           0.30226375973281    1.05362812528241    2.56488885104123
H          -0.30471738471843    0.47301571411598    2.07666401998388
H          -0.05026714677026    1.93919393285053    2.44950767238659
O          -1.25614051836925    2.38787977873555    0.23615633809021
H          -1.35354880218829    1.43284267486709    0.45223895398893
H          -1.99258115353742    2.59296039119003   -0.34188081005266
O           1.10831352283478   -2.12538368217855    1.09373516777843
H           0.73171849343452   -2.06297562180214    1.97372217294201
H           0.35001401091555   -2.22377903572921    0.48433454878762
H           1.97397415961645   -0.63218139905892    0.82120967309376
N           0.85413038561872    1.41459119685239   -1.13553533903057
H           1.41127811678523    1.81864176616128   -1.87994019140159
H           0.18782665592321    0.70258285410731   -1.52319221164155
H           1.48635685708256    0.92431249222063   -0.40502518111224
H           0.24931327949301    2.10595053434878   -0.65101657770120
