    26
        -50.46422649  Gyration_radius:  2.57411755624 Dipole_moment: 3.096
 S          -0.42395090817256   -1.72371186791888    1.48345609144449
O          -1.64575727649239   -2.22265437830846    0.89422894061681
O           0.54484521396971   -1.27800694082594    0.47666671942004
O          -0.61427876074562   -0.69511290785981    2.48596424670567
O           0.23349601635256   -2.97559516152183    2.20413896132164
H          -0.34945629325215   -3.66880702550758    1.91246368621618
O          -0.85639881979560    0.71644073498038   -2.24547601334897
H          -1.38951119780787    1.13693154029142   -2.92071529350839
O           3.10732763896962    1.06371166515119   -1.16746155594065
H           2.63953240128413    0.33040950621095   -1.63674990676558
H           3.88542886240758    0.66874261276455   -0.77258639731845
O           1.50873168780699   -0.89256780489236   -2.06161766052758
H           0.71041665329486   -0.46831894641263   -2.40420173932698
H           1.24051980488630   -1.27406569153162   -1.20992788747337
O          -1.19148121247677    1.73278469412970    1.82289688490510
H          -0.95634865724851    0.82551512482442    2.15203719501420
H          -1.64235901450745    2.16442307905908    2.54974847162610
O          -2.35670585220595    0.08130013568895   -0.20281422313062
H          -2.15075307733263    0.70996281667186    0.50380867696704
H          -1.49144181470882    0.37312785043746   -1.56045317430267
H          -2.19686175518762   -0.81233447733638    0.16450831384377
N           0.68651190300031    1.27896653621760   -0.08152712163265
H           0.14126284965623    1.32044094739008   -0.96401904733468
H           1.68162609583493    1.49254345982596   -0.29673618812542
H           0.24225217028531    1.85240131164965    0.64303133078019
H           0.64335335218604    0.26347316681344    0.23133666988678
