    26
        -50.46215073  Gyration_radius:  2.5103500083 Dipole_moment: 3.336
 S           0.07396849371127   -2.10545944925417    0.40634457656973
O           0.81515313636174   -1.48310453531991   -0.68664243068274
O           0.62521196167062   -1.77464607630457    1.70280344319579
O          -1.35240876320313   -1.85782329997711    0.30006321657768
O           0.27099492661092   -3.66872114270111    0.23585421472276
H          -0.17712108290241   -3.88360879790648   -0.57739863906409
O           0.57182409476312    2.63785140019494   -1.49322118095071
H           0.02346656264471    3.30870492130563   -1.90084793002539
O          -2.74295836473044    0.06864916089201   -1.05137636264931
H          -2.78050864828116    0.69120684843203   -0.32015144915800
H          -2.42356313113495   -0.76095971520148   -0.66013139568292
O           0.73745947061432    2.14936062369306    1.09220598733847
H          -0.09281347251501    1.66993788802384    1.28829967882459
H           0.66235977597213    2.45640421139167    0.15603104809164
O          -1.30531319790870    0.44400619314505    1.64353470601076
H          -1.19470506591447    0.21294814705868    2.56787119395265
H          -1.32600182940621   -0.41106085715485    1.16926315626355
O          -0.35918057899025    0.33165061152437   -2.34309456281479
H          -1.29102067658435    0.29441893825419   -2.04996888709642
H           0.26998942035901    1.77051062830012   -1.87296211428814
H           0.09051737035989   -0.37834556022306   -1.85515162936317
N           2.22861052389961    0.07135885941910    0.85528959465214
H           1.78256860662446   -0.62890862975722    1.49784071312133
H           3.23133190193855    0.15299943453517    0.97959935514220
H           1.96620083346809   -0.33243649236581   -0.06538186279151
H           1.69593772255680    1.02506669997378    0.98132758006779
