    26
        -50.46215078  Gyration_radius:  2.51041696163 Dipole_moment: 3.332
 S          -0.24819402233562   -1.01388029972167    1.87498230110184
O          -1.02275746059383   -2.00926264772192    1.16555111757777
O           1.05846837931245   -0.78872037415599    1.26374763039384
O          -0.96190527813775    0.23095808335387    2.09486028227147
O           0.03806038975384   -1.62513077203444    3.30876520951698
H           0.46778743035473   -0.92415020606707    3.79078631580206
O           1.49526554372465    1.27974813374562   -2.37500778065228
H           1.50920089775262    2.15574191280188   -2.76152025322008
O          -0.54294658474984   -0.39179049009274   -2.43069685246159
H           0.18363105356915    0.27065689514615   -2.52795954844759
H          -1.15864644812421   -0.02365560239716   -1.76507088251655
O          -0.65957267271147    2.69770540413337    0.95737512086988
H          -0.78740820822811    1.95190616377062    1.56632682685091
H          -1.30090158735060    2.55927468776561    0.25507265259720
O          -2.10249930468273    0.29420867269101   -0.31358410574512
H          -2.80286033756765   -0.36091670135964   -0.29615148445683
H          -1.70113299818956    0.26000678416040    0.57762386335924
O           1.73633943801974    1.63311212023252    0.21832678591614
H           1.59876119281003    0.77786639731486    0.65874734106817
H           1.66309141389618    1.40697197558950   -1.40382252462752
H           0.97413883798958    2.18444576644163    0.48423648102572
N           0.53462880895688   -2.14784381653007   -0.89685209162879
H           0.99152087650946   -2.95777359902676   -1.30040204736447
H           0.11075422149216   -1.46781305713926   -1.64998989573546
H          -0.23181094277044   -2.39210628817162   -0.22257540394763
H           1.15898738130548   -1.59955914258544   -0.27276906748396
