    26
        -50.46942152  Gyration_radius:  2.45824706905 Dipole_moment: 4.083
 S          -0.68655099830663   -0.94441349284022   -1.31940071910377
O           0.36830731111162   -1.35464201369801   -2.23161882609238
O          -0.42274116313118   -1.32546791616737    0.05417039613553
O          -1.00312370141819    0.46823587103757   -1.45434416142837
O          -1.98182770228459   -1.75451196330945   -1.74117308206065
H          -2.02822491309686   -1.66439356267379   -2.68821203028713
O           2.07287803097533   -1.55421962942745    1.17321432596078
H           1.19257700073080   -1.81483760280812    0.85093480526822
O          -1.93295010776878    1.77869219910253    2.43092904815435
H          -2.39161089368377    1.19183718010935    1.79176251714445
H          -2.14928491461075    2.67531045663227    2.17143356374256
O           1.12825616596299    1.84356134532699   -0.55566504098405
H           0.31354972121389    1.56391487965051   -1.01491152622567
H           0.94930287610790    1.62624463576796    0.39052485291052
O          -2.82812602923406    0.15161888912087    0.46626884695430
H          -2.58287528669610   -0.75923293795373    0.64860059911983
H          -2.26467770305335    0.41403080271040   -0.28343077355619
O           0.41892538104942    0.67484650997760    1.71490834115611
H           1.89294144248949   -0.84813029463785    1.80855193766391
H          -0.32444038461894    1.13720870600366    2.15263044556966
H          -0.00449169699063   -0.03154277382975    1.19447648343728
N           2.49222464112118   -0.29530595708186   -1.12468392060523
H           3.38685668756410   -0.26446048958391   -1.60068965890443
H           2.08781322146434    0.68482549375674   -0.93023600751133
H           1.75513211687785   -0.78546491883257   -1.69961326936904
H           2.54216087821538   -0.81370341637359   -0.20442714707232
