    26
        -50.45484456  Gyration_radius:  2.6396827843 Dipole_moment: 5.490
 S           1.38446979923523   -2.19881866469894    0.10069628050735
O           1.50274382138839   -2.24125703764697   -1.33895808082534
O           2.44051036450947   -1.44584572817250    0.74829928302746
O           0.06026980726254   -1.74497557910196    0.54865575057397
O           1.48679571632358   -3.70445286414183    0.60650644588413
H           2.20544697563764   -4.06143686500843    0.09302717559599
O           0.44509229326491    1.78482567021124   -1.27083567117579
H           0.97206759116338    2.34232653932906   -1.84350677822839
O          -2.10768785117368   -0.87135404846015   -0.82134501028547
H          -1.46590034534731   -1.37251340709772   -0.28827524174977
H          -2.20823577905333   -0.01817552644880   -0.37850072798342
O          -1.91369179196890    1.87375179077486    0.07817814457040
H          -2.58141945841149    2.39356808378659   -0.37174629748086
H          -1.10173000482780    1.93041072466761   -0.46531831955711
O          -0.84442050565379    2.02663785640857    2.61088326587222
H          -1.35132107440198    2.07163600983152    1.77873194201678
H          -1.40115201962920    1.57388204117406    3.24623590307164
O          -0.03158466589994   -0.39816284380806   -2.47768537195646
H           0.58498577129422   -1.09858894358769   -2.17068215592109
H          -0.90024184110875   -0.64611193750404   -2.09474445249972
H           0.28175384478886    0.91884786932746   -1.79545923040653
N           0.91824631484467    0.61435296851312    1.12465369935507
H           0.36189698434128   -0.27806641856953    0.95912022896811
H           0.89893703093356    1.16485403712343    0.24161910159624
H           0.50767771725742    1.16974319545195    1.89792484385188
H           1.85649130523332    0.21492307764750    1.28252530317547
