    26
        -50.45835404  Gyration_radius:  2.59569034088 Dipole_moment: 7.797
 S          -0.77457180129106   -1.60572297842313   -0.59960684304038
O          -1.98005707747037   -0.93734708943498   -0.15220310594057
O          -0.32712290170082   -1.06207838226971   -1.89880594121712
O           0.30736157391624   -1.55582794616065    0.36881578716857
O          -1.10402143946995   -3.11706212606306   -0.83580188058651
H          -1.83200360400303   -3.08826776165716   -1.48784304331086
O           0.50453476271144    2.50478124109492   -0.02584716874795
H           0.07921950474541    3.17650174602792   -0.55978214236988
O           2.48265896820891    1.53446777590980    1.67899448234368
H           2.80619954355594    2.04766315876680    2.42093844186935
H           1.83973347592338    2.09134275009939    1.21437061459309
O           0.46300667175248   -0.15820187563618    2.69564147665509
H           1.28487381779996    0.30314873199718    2.46660331630720
H           0.36993261514753   -0.86269302998566    2.03318909888495
O          -2.85008418959553   -2.00397559312193   -2.49028194160726
H          -2.07148657419099   -1.56229379655483   -2.85255754334661
H          -3.07202937473077   -1.49260015088346   -1.69868363467782
O          -1.30403950836206    1.24305358359051    1.25204111227044
H          -0.24925954387071    2.03860779905854    0.48348589503332
H          -1.67448324038724    0.50042569875225    0.73429669196857
H          -0.79378824756531    0.80480622921908    1.97028814386531
N           1.62208586795039    0.26427971259058   -0.96064665093253
H           2.56053873868140    0.28963580242872   -1.34393746205938
H           0.88750175087062   -0.20711436044746   -1.59420645419705
H           1.54992462460017   -0.36320776642035   -0.13638281893120
H           1.27537557678156    1.21767861755161   -0.68207841998548
