    26
        -50.46929816  Gyration_radius:  2.49727396373 Dipole_moment: 5.074
 S          -0.40933841761936   -2.03862833059436   -0.33821128556094
O          -0.42154609139140   -1.56257797114525    1.05066714226858
O          -1.54682824110200   -1.50765198037828   -1.06795650760027
O           0.86274822935355   -1.83474711308381   -0.97968091208038
O          -0.63646243207774   -3.60219513281382   -0.25490951457971
H          -1.55788364968987   -3.64434127712065   -0.02413351394401
O           2.06333884303801    1.27211134432929    1.05774979605804
H           2.35167923982229    0.35647065030661    1.27584365029178
O          -1.45875906753928    0.85519209323006   -2.10306315255193
H          -1.99681019200520    0.82004931665422   -2.89552013974673
H          -1.50093462084962   -0.05722119527143   -1.70850570379358
O          -1.71666640708193    2.55283581974263   -0.05990646925355
H          -1.16150619184071    3.29192043819204   -0.31710603726501
H          -1.73508414353408    1.94745343729284   -0.83413002972045
O           2.24784026171860   -1.38437237508647    1.36204377586932
H           1.28815151400516   -1.54265294997428    1.41449106616165
H           2.47946553517692   -1.70069450834894    0.48242692731807
O           1.26718827641628    0.77919356320756   -1.44638389490035
H           0.40723198558182    1.01199878365943   -1.81989901131636
H           1.92831804745942    1.25526103976155    0.08504889800423
H           1.24637922498677   -0.19325818241114   -1.36987244000180
N          -0.42089924905521    0.99512500716589    1.71645491004244
H          -0.54818147990637   -0.01683525896206    1.45863309699849
H           0.63160339023183    1.20853616116254    1.52702930816918
H          -1.00730929590210    1.60228660717806    1.09643329968410
H          -0.65573507817364    1.13674199333675    2.69245674145464
