    26
        -50.45996684  Gyration_radius:  2.52925936591 Dipole_moment: 4.320
 S           0.16626570718518   -2.16010782131751    0.80752674241955
O          -0.79713178077054   -2.75749014895813   -0.09087557879831
O           1.53929552707986   -2.25372978261548    0.31239953222678
O          -0.15278838736558   -0.80342937544327    1.19718279257212
O           0.11753225543461   -3.02676763577891    2.14375626947831
H           0.20383601748284   -3.91680049770553    1.81622273622959
O           0.11726236836715    0.71816991490441   -2.17161879456220
H           0.18946037157830    0.66060776096766   -3.12504672782854
O          -2.34251535445396    0.55129497544176    0.87909895430694
H          -2.81649745957644    0.59205279777398    1.71032858862163
H          -1.52384290501171    0.02147665904975    1.05520299981582
O          -0.72133523177337    2.50674970470769   -0.13455493037727
H          -0.47119631590145    2.06087695746126   -0.95602320477453
H          -1.40083728419900    1.93129097906125    0.26364933352081
O           1.48464420604861    2.21179357725373    1.28126674773231
H           1.92717687165155    3.06139295963646    1.27054801014844
H           0.59591291531774    2.35801875518084    0.86324453529945
O          -1.84998855538478   -0.80266806911913   -1.51275944183654
H          -2.31780589614870   -0.31722199567599   -0.81772718042397
H          -0.65091477823663    0.10959411029349   -1.92185975794736
H          -1.49781453148419   -1.60514389385617   -1.06638547973957
N           2.06060091388066    0.17823148173907   -0.36393089271588
H           3.00887085952476    0.26353542630088   -0.71534333965509
H           1.36176076590890    0.37295001667066   -1.11753192987133
H           1.88323028430263   -0.82303409358259   -0.01741514069933
H           1.88681941655313    0.86835722763420    0.41064513683608
