    26
        -50.46975390  Gyration_radius:  2.44511966522 Dipole_moment: 3.681
 S          -0.82280167050909   -1.61101873535684    0.57418682828325
O          -2.23413547895225   -1.36090477658132    0.73171677694757
O          -0.34162461393237   -1.40497579354848   -0.77833698691831
O          -0.00041795882971   -0.87579596927004    1.53837876219008
O          -0.60474177648919   -3.14302575534712    0.92547166379624
H          -1.50104894118805   -3.45788264399692    0.88871132912316
O           1.19838657680644    1.99770811134451   -1.16197580280823
H           1.88833008881456    2.60990341244315   -1.41866153070838
O          -2.66700443503722    1.18397170839557    0.03780845688306
H          -2.72163162092448    0.25087415899917    0.33056675137408
H          -2.37434137263176    1.12867162390410   -0.90178410339034
O          -1.22594936532963    0.76826345796838   -2.14873201865485
H          -0.95736410930021   -0.10974476997628   -1.82493784228133
H          -0.43399903188354    1.31748104264050   -2.08777714530173
O           2.61841737538439   -1.28997454009290    1.30950362984155
H           1.66566648499822   -1.15959744011608    1.49324125788325
H           2.78130697452641   -2.22943346707019    1.40709399212190
O           2.10981438826813   -0.41797041498922   -1.20906339627063
H           1.60469657960567    1.07740226312037   -1.21673821946374
H           2.52452093970011   -0.65621082657984   -0.35766218263561
H           1.25312701290179   -0.88711528127455   -1.19854850282118
N          -0.33644003924738    1.68125908198363    1.03071784600868
H          -1.36108133119660    1.62126338214234    0.66505604438258
H          -0.11301860934254    0.69946365603614    1.33819857117193
H           0.29296700182251    1.93128145852363    0.23466144252884
H          -0.24163305764937    2.33610703610125    1.79890434930863
