    26
        -50.46862993  Gyration_radius:  2.50072396173 Dipole_moment: 2.833
 S           0.36997603782307   -1.93913127971191    0.91475794413803
O          -0.49904776367826   -2.25519948736794   -0.20658919664418
O           1.77187305398523   -1.93927131863119    0.56661677208739
O          -0.03276947585548   -0.72418379986032    1.61807399328076
O           0.16164786462982   -3.10027908106981    1.97901909447951
H           0.54579641695139   -3.85961694988196    1.55228481253860
O           2.65863758372695    0.06582665160629   -0.92564368754864
H           2.56913242294229   -0.77770486313711   -0.43451164755199
O          -2.27721687221401    1.18818095473673   -1.04017265406993
H          -3.14380103745344    1.39774092468993   -1.39013103892076
H          -2.41893303082991    0.46811033633357   -0.36262996428595
O          -0.29111593666363    2.92448339859814   -0.53276473184371
H          -1.08692305432414    2.36071624293891   -0.63701347160300
H           0.09825517076844    2.98265149118215   -1.40831265105127
O          -2.51718663187345   -0.78205656374706    0.66534651698418
H          -1.87032287980085   -0.56769932679162    1.35538963196418
H          -2.05654840900829   -1.49184301809522    0.18034101306909
O           0.10751558817678   -0.14952495875378   -1.77209753736518
H           1.90278644077472    0.04607608632862   -1.54030081988040
H          -0.07295049209983   -0.99861787225489   -1.33196046177211
H          -0.72199321314396    0.34419669806028   -1.71296508372822
N           1.36920137323825    1.38506160167832    0.91237373881780
H           0.80575071331475    0.57410077762150    1.28596971767893
H           2.02548129183593    0.95327370323414    0.17478115549329
H           0.71979882047225    2.05662737574459    0.43064177860075
H           1.88295601830278    1.83808228656349    1.65949676711896
