    26
        -50.46334376  Gyration_radius:  2.48687085541 Dipole_moment: 5.229
 S          -0.79421364325626   -1.80975745648750    0.52674750606038
O          -0.45685723043889   -2.16098156380228   -0.83404709576226
O           0.39218254395908   -1.57906881305545    1.35841859969985
O          -1.72107843757844   -0.70501287448050    0.64645497259337
O          -1.50877880402795   -3.09152819183545    1.12492765193389
H          -1.42899289724154   -3.69867499583356    0.39689838857572
O           2.16864621154471    0.84468208884519   -0.85566092156762
H           2.50164507561908   -0.07899908122923   -0.79453694321256
O           2.32456630870114   -1.80342758657736   -0.50793214544331
H           1.73674134780068   -1.83767387990511    0.26799016312068
H           1.76945940258471   -2.11199837399218   -1.23150811455821
O          -1.85364261129177    2.27999830928863   -1.55097783377429
H          -1.34501339569941    3.04981413103907   -1.81142258668498
H          -1.79303825577557    2.21192490848640   -0.58328696175637
O          -1.52143374843891    1.80371085080025    1.16751137199511
H          -2.24670355299548    2.02675020077982    1.75337327181527
H          -1.64600753556019    0.83985362145036    0.94685702963588
O          -0.07691776899049    0.23286523614421   -2.05915522355090
H           1.36767162733734    0.74973302740966   -1.43282666226463
H          -0.32573803914484   -0.63433142721459   -1.69696570971244
H          -0.84806240852952    0.81916352220084   -1.96631537327195
N           1.06552512491160    0.95483204890045    1.45533354811132
H           0.79767685094283   -0.06438369014388    1.54497187657455
H           1.58259779725374    1.01994685820479    0.47958535014945
H           0.19049741994800    1.50374631527493    1.43701025985408
H           1.66926860836341    1.23881681574026    2.21855557145294
