    26
        -50.46248953  Gyration_radius:  2.48014795165 Dipole_moment: 4.748
 S           0.70306735730550   -1.70133340161062   -0.78002639153866
O           0.05496193141944   -2.36337866922430    0.35081795070970
O          -0.27759631363969   -1.00763278340085   -1.60669571928708
O           1.79559653376725   -0.86700392123694   -0.35517369537601
O           1.30540147038288   -2.84878185113001   -1.68849280712815
H           0.52718058145854   -3.32723979913111   -1.95563381658185
O           0.45320119185746    1.91335078989413    1.01448226336213
H           0.63284870160133    2.72841893725926    1.48416621013442
O           0.15140934286786    1.33520426979339   -2.83422242249174
H           0.03581759743878    0.41793429362637   -2.51649674475968
H          -0.69622684802016    1.76342790879338   -2.69506440390583
O          -2.53588043179456   -0.42771949090895    2.03159239157168
H          -2.42721301234390    0.07113562582021    1.17949815670840
H          -2.85563048851281   -1.29705966476333    1.78256728621128
O          -1.76675132822587    0.73623836226026   -0.20436181503062
H          -1.30950593102082    0.05763352877734   -0.74003234494730
H          -1.06863528404614    1.31751664703861    0.13511917146400
O           2.06677279963330    1.71122824514968   -0.96188271577160
H           2.21291094396900    0.75727730039903   -0.81340191652474
H           1.49573842429471    1.74701310853916   -1.75622001300529
H           1.11416315168760    1.88069077224789    0.24436325216818
N           0.09909997673529   -0.51458043774008    2.16219251533440
H          -0.94600885324564   -0.46537918226082    2.33760145418458
H           0.21249554309067   -1.29729467755027    1.44278738939356
H           0.39411467594227    0.39599753066558    1.73935167526255
H           0.62866826738195   -0.71566345132318    3.00316508985058
