    26
        -50.47208652  Gyration_radius:  2.4430314753 Dipole_moment: 2.369
 S          -1.91104577107010   -0.03399302732319    0.77275426520923
O          -1.75386767635181   -1.31614323389173    0.09532810013822
O          -1.20356333298473   -0.00324542705622    2.04050411723105
O          -1.60194457195979    1.08195231300823   -0.09832470245775
O          -3.44741663049252    0.10538470657660    1.13355139160934
H          -3.52852314180767   -0.42835024798692    1.91727281799734
O           2.16835959624463   -1.28317155491846   -0.37649258157057
H           1.74283662123316   -1.55146533840945    0.46811234516755
O           0.27449978190871    2.17804709856685    1.41062210291889
H          -0.48714389052440    2.01604472449848    0.82089214758287
H           0.12726611318581    1.54224328740923    2.12156909239073
O           0.06558857633963    1.38445508776259   -2.20479212638822
H           0.87479935865595    1.55264201187915   -1.68843840629999
H          -0.66418972185073    1.49340711705400   -1.56942742996318
O           0.55926597718711   -1.94141780460072    1.65953260175224
H          -0.02335015870778   -1.19399460224548    1.90379826630338
H          -0.03625305734249   -2.59364520611211    1.28284114157280
O           2.10679797144249    1.47260351093602   -0.33089325619204
H           2.84267185756328    2.08419319996509   -0.28611466355563
H           2.31067242203077   -0.32229182286154   -0.31119075545201
H           1.47173911939797    1.74835248377833    0.38402924180653
N           0.01605685777109   -1.22142996412877   -1.85582149054281
H           0.94821142365861   -1.36620145623193   -1.34371284538838
H          -0.75192414282461   -1.31216889321674   -1.13787334469761
H           0.01198066925734   -0.21275871016511   -2.19170520346314
H          -0.11152425940550   -1.87904827263155   -2.61602083588895
