    26
        -50.46911739  Gyration_radius:  2.45434449557 Dipole_moment: 4.077
 S          -1.06976834889744   -1.10919480699539   -1.62369543762633
O          -1.01748650583527    0.35490130272371   -1.71950515866411
O          -0.06011117551719   -1.77070459445913   -2.39778730822418
O          -1.11659468574106   -1.51612378680976   -0.22648040379138
O          -2.46925771283956   -1.53038094985188   -2.25376612308933
H          -2.21224474062485   -1.89907355250139   -3.09314842133781
O           1.42513176102947    2.15744287744235    0.76294325275392
H           2.04587619685989    2.88518310380221    0.72258177030441
O           1.28762610953244   -0.22399701321515    2.29994098383422
H           1.46247593073486    0.64369853652887    1.90701569763517
H           1.54776124267030   -0.87513623878660    1.63482044416993
O          -1.37943382204435   -0.35854309744185    2.17932770346370
H          -0.42902715197359   -0.38915932324447    2.44157949244519
H          -1.45194576072168   -0.99687752097607    1.44697218264488
O           1.49880666861340   -1.79422230443172   -0.05177544533359
H           1.74715016559847   -2.42171951463632   -0.73486842558551
H           0.51761413841312   -1.78231304493287   -0.07120015535264
O           1.63880598055530    0.61891905010799   -1.30666024907846
H           1.79527247884013   -0.26650705867940   -0.92457676436946
H           0.74491743329715    0.56741035137853   -1.68680859725107
H           1.58236639946283    1.60357669292915   -0.06054202556229
N          -1.23294731743770    1.64987820243633    0.55313356365714
H          -0.28709299250129    2.05275807349486    0.70079055267509
H          -1.38838214268424    0.88008428054497    1.30642798057386
H          -1.95172594939196    2.36368961544697    0.58195628892901
H          -1.22778618937570    1.15641070007851   -0.38667539783444
