    26
        -50.46911896  Gyration_radius:  2.45467647632 Dipole_moment: 4.023
 S           1.16218711152009   -0.06132759155450    1.91301707497737
O           1.87869919037758   -0.36648799008663    0.66892664761968
O           1.31131858739058    1.29815178605434    2.34429442567792
O          -0.22024563211640   -0.50892529797214    1.81436917746548
O           1.84257396771471   -0.96527679089007    3.03239473805522
H           2.31167875275754   -0.32236986586253    3.55495851884346
O          -0.02966847478084    0.41542552081596   -2.66532350397752
H           0.18966928309506    0.78776529296952   -3.51957348539171
O          -1.73446483197661   -1.93611841713109    0.12231720014362
H          -2.19180649133346   -1.17839147372689   -0.31297167851533
H          -1.36365508512111   -1.56048344559168    0.94129277295036
O          -2.38555058938252    0.35979003403844   -1.08295351468376
H          -2.15485348906644    1.00944864497363   -0.40560385508475
H          -1.70144432918609    0.43009125488523   -1.76469629794348
O          -1.08655774121534    1.83060953203796    0.96440727154229
H          -0.84275535181200    0.96004552221488    1.34662071748445
H          -0.82643567330980    2.46977218199211    1.63210845983878
O           1.03611610580730    1.77791480018872   -0.74069245184750
H           1.54614663924013    1.13526274511028   -0.21813733477243
H           0.40370244428417    1.00630877639375   -1.97782115544398
H           0.27723181520133    2.01103141318789   -0.17132287204694
N           0.53038404772878   -1.74073706002788   -1.11497058225127
H           1.12612256961858   -1.25897193169689   -0.38044175267625
H           0.36557440750673   -1.05903440469140   -1.88113587734747
H           0.98435665105013   -2.58111777617313   -1.45354540320522
H          -0.42832387397353   -1.95237544946754   -0.64551722940591
