    26
        -50.45835391  Gyration_radius:  2.5954954542 Dipole_moment: 7.810
 S          -0.42952721193904    0.80774749890302    1.64287236132475
O           1.02222991245043    0.61882711322350    1.84491684618711
O          -0.68273563787294    1.93983802046148    0.77423465177392
O          -1.03955771879278   -0.42600852121071    1.17826639802551
O          -1.04097366746069    1.11608174413944    3.04993140363260
H          -0.59956185577867    1.94941208099236    3.30820712278226
O           1.36392019313786   -0.39809834990501   -2.12304176302410
H           2.08007645512757    0.13982848954078   -2.46206098374425
O           0.61616782253630    3.17074904022498    2.81130017115467
H           1.28204889358692    2.48884645108539    2.65646199946931
H           0.16169238589186    3.26260839898556    1.96119482742632
O          -0.22987279866122   -2.68078565039506   -2.02352406343630
H          -0.54599836004922   -3.11078029979262   -2.81957849109020
H           0.33321825394821   -1.94542482286431   -2.30903267887057
O          -2.28725473833723   -0.93785280297224   -1.18228411190409
H          -1.72111821940897   -1.68848257378097   -1.42054176221730
H          -2.09368229377805   -0.75577279493717   -0.24782404549541
O          -0.66287600278876    1.10694523316189   -1.77318375285561
H           0.56875114504827    0.23559511376782   -2.01683438951987
H          -1.40425324843881    0.46171126218507   -1.72402651229955
H          -0.66003070611960    1.53545209286068   -0.89391692505008
N           1.22773695598903   -1.41638296663694    0.34412159012494
H           0.20272116645696   -1.52106661394036    0.46896597260798
H           1.39804238971928   -0.59700697646150    1.02564213547438
H           1.73157431910713   -2.26725243449074    0.56869208794630
H           1.40926256642394   -1.08872774214274   -0.63895809841787
