    26
        -50.46580098  Gyration_radius:  2.55588868373 Dipole_moment: 3.479
 S           1.53870172149397   -0.67464108213241    1.44079819802348
O           2.11270915758497   -0.76128517121324    0.10350499689077
O           1.98816650079677    0.48532054684786    2.17675113019311
O           0.09286923556764   -0.82908103497850    1.39296211202443
O           2.08304916349130   -1.92764066334774    2.25187902032400
H           2.81348053238374   -1.53394379022354    2.71604239032786
O          -0.49520204214756    1.18886195012461   -2.13278963240983
H           0.18737452116827    1.83442533689394   -2.32230019816554
O          -3.05882836714714    0.00496806023117   -0.75043076545359
H          -2.59567510144683    0.59592543551381   -0.13903889201622
H          -2.84913737264021    0.32835595836833   -1.63020812599815
O           1.20491534515248    2.77999778223609    1.13801391328499
H           1.59135155032376    1.94780083989802    1.49554773954767
H           1.23885860835975    3.41111362507652    1.85909842800214
O          -1.58214531604974   -2.21046068510030   -0.20842918207888
H          -2.28716933981470   -1.54671329908268   -0.36102231152082
H          -1.10553686537570   -1.89941771379885    0.58234163568621
O          -0.96869292580487    1.39616753737283    0.44481593858870
H          -0.30718168408990    2.07133585832491    0.70410634544316
H          -0.71687990020453    1.31477184714208   -1.16931752598468
H          -0.63737051757703    0.56930122737299    0.85799403413092
N           0.35535029175321   -1.32356852264682   -1.71958404351189
H           0.03152180358348   -0.38345708498826   -2.05075652621036
H           1.12216717257756   -1.14807368794562   -0.99798765145841
H          -0.45642156940801   -1.79624774343523   -1.19876274320400
H           0.69972539746413   -1.89381555653684   -2.48322828446493
