    26
        -50.46975090  Gyration_radius:  2.44576402521 Dipole_moment: 3.861
 S          -0.58084289464510   -1.72151822638499    0.56632773427992
O           0.74493129651555   -1.61477326341713   -0.05128858308603
O          -0.52344406626995   -1.75626811517008    2.00698842245055
O          -1.47691275671718   -0.71321797709203    0.03663208805668
O          -1.14065361045083   -3.13678157626686    0.11784745226460
H          -1.35383158062771   -3.51129178870249    0.96525721754492
O           0.36578960623455    2.41238793099863   -0.90374991175855
H           0.61226967881748    3.12912418259751   -1.48872396875421
O           0.74773912324908   -1.50292149365825   -2.70963639313360
H           0.32944461349682   -2.29852816090058   -3.04218533205126
H           0.81350162259546   -1.61628890425245   -1.73916150135282
O          -1.50029594458803    1.74409955266190    1.19954188069074
H          -1.69368757877004    0.87614922101922    0.80338435886406
H          -1.01744573333514    2.23364442334525    0.52141412527255
O           0.28679895748144    0.65537745386430    2.82771676902743
H          -0.46074170841446    1.18903242689597    2.46988386396529
H          -0.01376316950381   -0.27262317111035    2.74014750346257
O          -0.90154235954835    0.59548794515507   -2.22998911606259
H          -1.29085719933930    0.11974510602302   -1.47132859731253
H          -0.13940712512586    1.74896181614282   -1.46948621749832
H          -0.27532084824608   -0.04503599517037   -2.61930242586169
N           1.72519344481945    0.71032478880318    0.68441187006057
H           1.31846796459213    1.44150121738358    0.05805172831352
H           2.73285279626619    0.79935612519956    0.75254003168754
H           1.24009641505431    0.77178747117897    1.65811906868858
H           1.45166106645432   -0.23773096914454    0.31658794224220
