    26
        -50.46934675  Gyration_radius:  2.40561873322 Dipole_moment: 4.748
 S           0.02402130058351   -1.47640155827893    0.61132159715199
O           0.79094430220758   -0.53557023159067    1.44786791726600
O          -1.37076956664267   -1.64365325805486    1.29162402054032
O          -0.22531479409573   -0.87445955494437   -0.70493994888652
O           0.65471616949803   -2.76183646899187    0.49230710068964
O           0.52623887338692    1.57408803268284   -1.44289796774711
H          -0.09584209873712    2.10220520859627   -0.91981140711823
H           0.16432164982591    0.66660211053702   -1.38221784132863
O          -2.71192245614456   -0.01438090893578   -0.78076791904764
H          -3.17553723756098   -0.55371162469856   -0.13592060044122
H          -1.82314232155258   -0.42473451594326   -0.86941159073195
O          -1.72081872876219    2.28659224540977    0.08344692960191
H          -2.34443921605784    3.00916843259144   -0.00098539442195
H          -2.15988397168692    1.49146971340460   -0.31218732004254
O           2.33207741247514   -2.01549136177177   -1.40131472696792
H           2.62762246808128   -0.52987341085004   -0.80261147419952
H           1.80451584431911   -2.43757339097339   -0.68364168872969
H           1.71888421857446   -1.94246248593846   -2.13757813203595
O          -1.35542558351248    0.73328186618297    2.33120673358700
H          -0.40590056642829    0.52975844383907    2.29841534226423
H          -1.50422543142360    1.39869941122382    1.63383298246720
H          -1.52978313093436   -0.78021510411651    1.76451539642905
N           2.52376148287974    0.35880290902489   -0.23743772924300
H           3.41634303664684    0.75292605679734    0.03720470794915
H           1.92875849555769    0.05266943764590    0.59317696174388
H           1.91079984948852    1.03410002713017   -0.77319593877094
