    26
        -50.46379221  Gyration_radius:  2.52747792237 Dipole_moment: 3.682
 S           0.07697329776998    0.56297045170279    0.50129959354442
O           1.05134215775286    0.58458713383194   -0.72054112071137
O          -0.70080416782315    1.77200792726989    0.40250009087218
O          -0.79190632971218   -0.62740470537662    0.26083747757849
O           0.83685424154378    0.41112237899793    1.71577356993580
O          -3.37814310390237    0.17383930010180    0.47315324306575
H          -2.47523524334900   -0.19610434899267    0.49273481238698
H          -3.49393719313728    0.62185884280025    1.31278420171067
O           3.49033382146529    0.25315416000874    1.79514388751617
H           2.51986396489096    0.34965007047873    1.89361375699487
H           3.84636853785337    1.14252874821091    1.78687398322802
O           0.93819848851866   -2.39562392910553    1.28972574512801
H           1.18271276383528   -1.98033250269138    2.12182008920844
H           0.19824827991521   -1.85938335875942    0.95138254602285
O           2.73411654756831   -1.24123230853176   -0.30357627402757
H           2.17447750337878   -1.87457741494310    0.20358126671487
H           1.76567272619792   -0.15014049992127   -0.58827796277507
H           3.28427717054446   -0.80191473458555    0.37663849722103
O          -2.57327652929847    1.89687223804186   -1.42254790001146
H          -1.87049384177038    2.13526127880960   -0.77311597649837
H          -1.80142112965474    0.80133241781515   -2.06450206849395
H          -3.20028871981325    1.38544977316677   -0.86998145928998
N          -1.12296248123735   -0.05501309748727   -2.22560486983116
H          -0.19055943244960    0.28820541158788   -2.45953085297295
H          -1.46800403230109   -0.72311440797244   -2.90747231142210
H          -1.03240729678274   -0.47399880445730   -1.24271194509802
