    26
        -50.46814371  Gyration_radius:  2.48724862565 Dipole_moment: 4.357
 S          -1.31824749675246    0.35344905185602   -0.25616793682951
O          -0.74232873960876   -0.88810000848155   -0.78898309419346
O          -0.26286889327132    1.09009990226576    0.47706703461624
O          -1.90416414931377    1.16200100893997   -1.29452470654033
O          -2.41161436045401   -0.00670418426676    0.75967798131836
O           0.29168828325771   -2.54150480452419    0.94900337635045
H          -0.12400596043538   -3.39757588609232    0.83261372281686
H          -0.14196824550128   -1.93700446848838    0.29815358575252
O           1.79703814375403   -1.41038062410049   -1.40674082170658
H           2.01829701277388   -1.91082169756888   -0.61479173003784
H           0.82016584232816   -1.32859933482245   -1.37629209428112
O           0.13229146525644    1.22007423960372    3.10141454099846
H           0.05452116002309    1.25222425851607    2.12522566980413
H          -0.42866553624101    1.92132608159641    3.43692394224289
O          -0.16517089140243    1.58511717701058   -3.17338006395425
H           1.06158515122835    1.45276188052748   -2.13721672464968
H          -0.31004084982341    0.86629386665978   -3.79187168067115
H          -0.90638463518719    1.52023757804795   -2.51613894895950
O          -1.17877913192526   -1.09863992539253    2.70850220057451
H          -0.65617600373969   -0.34761498536832    3.05915087400364
H          -1.96829963914697   -0.46293416822488    1.55297447555592
H          -0.53722577416501   -1.68896362582482    2.26636287796365
N           1.62653044014829    1.22796640865975   -1.27064723765755
H           2.38727694188046    1.88277306753397   -1.12757601734717
H           1.95256765625422    0.23054832186146   -1.34241742051219
H           0.91397819007719    1.25397089007627   -0.47032180466067
