    26
        -50.46355159  Gyration_radius:  2.44517178585 Dipole_moment: 8.596
 S           0.50383494466800    1.39069900175409   -0.58870348810392
O          -0.10285572347704    1.27051186428024    0.75241714339268
O           1.88706455887467    0.98741569180478   -0.58589771755762
O          -0.32180440459149    0.70102599229910   -1.57299343148137
O           0.41174595210191    2.90984756452128   -0.95594978565889
H           1.01120103516078    3.32777732590967   -0.30466347040667
O          -1.77374036384207   -2.22380362099705    0.47026674840001
H          -2.15158703300508   -2.93926359234886    0.98267457084858
O           2.08543235728223    3.08624861340361    1.07464070033768
H           1.49890812655507    2.71108458571912    1.73838527616128
H           2.45990053849958    2.32517569853059    0.60257277372624
O          -0.01714615713124   -2.02982201986798   -1.83953207059715
H          -0.69446267278867   -2.28238434532985   -1.19974560391509
H          -0.07604990277451   -1.06651717994540   -1.93615859128686
O           2.13928900691322   -1.71635953088610   -0.18795558375078
H           1.55007449494703   -2.03570676713525   -0.89745679442688
H           2.28334320503623   -0.77679271989258   -0.38475968600913
O           0.30062817290947   -1.27580909482558    1.63645586130184
H           1.07587157473726   -1.56716778532632    1.08753065427635
H           0.23575866585870   -0.31943952993088    1.47482307325024
H          -0.93596931905869   -1.93146538969215    0.96606889229665
N          -2.33501637738481    0.29167481919849   -0.05913821993095
H          -1.78914257743336    0.41864769362900   -0.95691691372493
H          -2.33849587694996   -0.73909641313356    0.17232100401241
H          -1.64885376684488    0.77286212475683    0.58452715153513
H          -3.25792844828562    0.71065701358184   -0.07281248257905
