    26
        -50.46928683  Gyration_radius:  2.50246265456 Dipole_moment: 3.651
 S           0.01728545322424   -1.96548024878629    0.77346406710236
O          -1.38846280861487   -1.73604871563501    1.04408716652014
O           0.28510231747176   -2.21802834746271   -0.62880538847104
O           0.86578419565739   -0.92336008989203    1.33781904731560
O           0.42418289058109   -3.28815623848159    1.54401532860528
H          -0.06752071978084   -3.94559109938654    1.06401323860770
O           1.75551366883155    1.40106743522674   -1.42389579454763
H           2.31989016555489    0.61397928556321   -1.24620161294672
O          -2.72445852659773    0.15999551755021   -0.08002493558214
H          -2.21568550570602   -0.56056199632025    0.38052005345441
H          -3.64866944264853   -0.07677008000574    0.01233761441144
O          -1.71112252993740    2.55394932658369    0.52401646680501
H          -2.15991199578400    1.69081833994051    0.38076445961599
H          -1.75638034618786    3.01513558876619   -0.31621192809780
O           2.72964080709034   -0.95231004627253   -0.59495993458442
H           2.25290998939305   -1.58923877336759   -1.13906640974879
H           2.23136620931996   -0.95879605854472    0.24166550944302
O          -0.51740888957194    0.03814760130764   -1.82713813709078
H          -0.22559436176147   -0.83700045920030   -1.50755716748681
H          -1.38949328331512    0.17164731293551   -1.43618691483843
H           0.93313638251495    1.02032027952544   -1.79682818050142
N           0.79918432791368    1.69731763078732    0.96220368085210
H          -0.17140978974371    2.08687142891181    0.88708294874942
H           0.75141199351983    0.68520308336281    1.23300780824839
H           1.25859720255726    1.70276555223907   -0.02467242010174
H           1.35211259603792    2.21412375063959    1.63655142426314
