    26
        -50.45602564  Gyration_radius:  2.61232295248 Dipole_moment: 5.385
 S          -0.45500004926380   -2.49745930364822    0.52766868107044
O          -1.76996406702402   -2.20934514032164    1.07867562915010
O          -0.14671223440397   -1.74886336635676   -0.66367821985790
O           0.59778836710546   -2.34767449737607    1.53939229821285
O          -0.46902989043876   -4.03490317272361    0.12765105690455
H          -0.80838099408665   -4.46542272005950    0.90746599737513
O           1.93319868799584    0.61692387469668   -1.33409071283286
H           2.50284249313134   -0.09931777052777   -1.61754377485758
O          -1.47735393767318    1.99646142740496   -0.81307148911894
H          -1.75406671366680    1.41540234353265   -0.08927691783012
H          -0.67420713863758    2.44311996920576   -0.49883899259353
O           1.07198746126609    2.95296729913427   -0.11983438111120
H           1.19739697964705    3.78887244161916   -0.57129207228286
H           1.53016989729595    2.28251560417468   -0.64968759350921
O          -1.68526521278451    0.33785876791831    1.40474348554742
H          -2.24293287294872    0.52610005800976    2.16168595235388
H          -1.78794242220972   -0.63908511889562    1.22861349259822
O          -0.31825003716596    0.22060504691902   -2.47710461095972
H           1.07288380627349    0.49283278463666   -1.86810824880525
H          -0.44692870170608   -0.61165339306068   -1.99010127631259
H          -0.88634481074680    0.88169717746948   -2.02448614882303
N           1.02167201811343    0.15800668767785    1.15872598719084
H           0.98705296178059   -0.89753302785925    1.36463938449589
H           1.36628684209764    0.29956589310059    0.17061897626257
H           0.03375639245018    0.47092122184486    1.23409185479056
H           1.60734316559367    0.66740693345460    1.81314163292401
