    26
        -50.46006498  Gyration_radius:  2.53403302768 Dipole_moment: 6.084
 S          -0.50576708055124   -1.97501292477035    0.81965714462881
O          -0.50622650243444   -0.54268066795773    1.15545686092251
O          -1.82358422149013   -2.55221805825294    0.80047901091060
O           0.32247253291843   -2.19987003132386   -0.34382310739585
O           0.25802175842001   -2.67763996824619    2.03762877362153
H          -0.43096912022724   -3.14961208737555    2.49537620744879
O           0.51826069336321    1.30306373649797   -1.93315497345437
H           0.77767398047021    1.62347526414533   -2.79746928020236
O          -2.95189464394603   -0.49577690781795   -0.47310990959652
H          -2.79239929256360    0.21214871280653    0.15520931612915
H          -2.71600636738495   -1.32045951422715   -0.00701392864007
O          -0.41563438852895    2.16513637830929    0.62624392803721
H          -0.62924713985323    1.27665731498302    0.94975072353897
H          -0.27446973926497    2.06607008867555   -0.32625464285041
O           2.11820184396091    2.36160509182424    1.48004336227206
H           2.47447518404239    3.24175648369050    1.35710456146883
H           1.14789854648603    2.42490367703281    1.30927903855726
O          -0.94097051459191   -0.77912595185882   -2.23705161999788
H          -0.46821886037111   -1.43397202692720   -1.68845833776597
H          -1.79706616328621   -0.64129365573686   -1.78065485203092
H          -0.10406865090030    0.52232703352492   -2.10301568062140
N           1.78664220997394    0.10617910737696    0.09883745521822
H           2.36179961240492   -0.71537459602077   -0.05810272300373
H           1.46624543232335    0.53173943305043   -0.80535382014231
H           0.89322531949953   -0.20287793171515    0.59427802631297
H           2.23160557152376    0.85085201029307    0.67411845663383
