    26
        -50.46627177  Gyration_radius:  2.44609963039 Dipole_moment: 6.896
 S           1.26555848235856   -1.35447887606465    0.72566715848026
O           0.61906740820710   -1.68071632855963   -0.53740057643469
O           2.59572768302375   -0.82988911520844    0.61017419000629
O           0.37156759821280   -0.51986259668950    1.53596037247821
O           1.40478700011358   -2.72360156695970    1.51518109427762
H           2.33002505630134   -2.69457838246796    1.73137268453129
O          -1.46617708726958    1.94166069472714   -0.65095368000065
H          -1.86603642954448    2.56215837887182   -1.26061943298229
O          -1.86385655044421   -2.26548982208062   -1.10478893963656
H          -0.89820621721912   -2.23441655517839   -0.90693569973639
H          -1.93605531152236   -2.10777048663125   -2.04850399988925
O           2.46775189810461    1.64083223556847   -0.53657839867028
H           2.73832658119834    0.78740825533742   -0.15821195132116
H           1.97527582573164    2.08567253632217    0.17874019942812
O           0.57544729667186    2.21648376325257    1.35904466483224
H          -0.17744746714592    2.34240549666051    0.76684198510779
H           0.57931362241594    1.27323708548790    1.58803424287118
O           0.40856389828786    0.66552137191631   -1.85186721427599
H           0.49396331462707   -0.23507614264706   -1.49199901748318
H          -0.72829187971029    1.47506836622516   -1.16671908538871
H           1.23279914998390    1.12394555989176   -1.54393091217802
N          -2.05766638617481   -0.29188190994437    0.65913995934264
H          -2.17533607748274   -1.06802453430476   -0.04392368260615
H          -2.02799806016405    0.63235495295106    0.16585112584466
H          -2.77488502796366   -0.31453990029014    1.37548662150039
H          -1.08621833059455   -0.42642247018603    1.09093829190603
