    26
        -50.46934681  Gyration_radius:  2.40567155035 Dipole_moment: 4.745
 S          -1.34066891712468   -0.74225922090676   -0.45886875633663
O          -1.62880435753925    0.59870544332260    0.08135678659128
O          -2.14069769421057   -1.06697867221019   -1.60722349302983
O           0.09405645747801   -0.85727516964726   -0.75173177931126
O          -1.63986098579936   -1.75920106561928    0.68685189366622
O           1.66846970657273    0.09317679679541    2.32590956850102
H           1.61961682040389   -0.81190042795416    1.92601407763904
H           2.29608231234719    0.03587558181878    3.04776471484572
O           1.91367392418021    1.03978325252307   -0.30694615959059
H           1.42548328628147    0.22576179028416   -0.54599749256199
H           1.96020641603555    1.00091516758173    0.66040912612051
O           1.23977666925775   -2.25051510110535    1.16517517968632
H           0.53429583362764   -2.79033018450858    1.52920314889561
H           0.86021445911658   -1.84031879965464    0.35655236032898
O          -0.62192586105498    0.24589628033772   -3.31797102260513
H          -1.30423821400823   -0.25367857972703   -2.81178165855694
H          -0.30120444719495    1.50632835738522   -2.33818011881821
H           0.13979658028558   -0.33958211397615   -3.33366293999464
O          -1.07120512682417   -0.07625752346599    2.57769966556058
H          -1.46799786872689   -1.25327013528723    1.52867174448165
H          -0.10647321357544    0.06089662455621    2.61934818969130
H          -1.38874027874200    0.51797929352201    1.87758449748250
N          -0.20301962967206    2.09183051409983   -1.46194514910015
H           0.75079616198705    1.91622955929090   -1.03988840286916
H          -0.88832607468167    1.63525080790943   -0.78406114216530
H          -0.39930595842406    3.07293753462885   -1.62428283855666
