    26
        -50.46163571  Gyration_radius:  2.5572533071 Dipole_moment: 2.262
 S          -0.23432939473135   -1.24622214798474    1.95537488678655
O          -0.96213468615759   -2.30821160278075    1.28634881362224
O           1.13316502077034   -1.11665661960376    1.45378132229140
O          -0.89829187582536    0.03620227832101    1.96348461625647
O          -0.11366819932955   -1.70874948751557    3.47267200484621
H          -0.00976796489887   -2.65110771542762    3.38725655587703
O          -0.73480397816596    2.23104045165861   -0.77029514985023
H          -1.09306536874268    3.11564720973930   -0.69338996215702
O          -1.23130263992849   -1.65086154957543   -1.20323564728258
H          -1.55333517647739   -2.42609037191275   -1.66617397595401
H          -1.08307999732066   -1.93497292753681   -0.26475905184140
O           0.36162242324362    0.23994324389004   -2.44632202810442
H          -0.05279485273473    1.04355431472548   -2.10317930702555
H          -0.13995011080398   -0.49494439129715   -2.05343969153572
O           2.81801722479551    0.43388708144415   -1.49881966657114
H           3.07560147426405   -0.45881611722943   -1.25885827180061
H           1.97663623564604    0.34207430555323   -2.01486220222151
O          -2.52427248331725    0.51246710549617   -0.06381560919587
H          -1.48473578910842    1.60581125745976   -0.51964832616104
H          -2.30991399747541   -0.26304592932648   -0.60718909372579
H          -2.09913536437801    0.33143561324698    0.80097077495186
N           1.43382676002206    1.29980471926603    0.58187599307604
H           1.81771758824865    1.93154909075671    1.27534658532692
H           1.24802875869194    0.34057468914325    1.01962961692585
H           0.54934422576236    1.68412924186871    0.17874863439574
H           2.11062215796186    1.11155823758432   -0.21150181090735
