    26
        -50.46397170  Gyration_radius:  2.53823781699 Dipole_moment: 2.326
 S          -0.45198832083969    1.66078933385796   -1.17932507505010
O           0.82750533194091    0.98273002916472   -1.06568801634656
O          -1.06514487972620    1.54457533532271   -2.47586575602167
O          -1.32391301384137    1.33858966323619   -0.05853391124777
O          -0.13426755428412    3.22801939552791   -1.00522954969788
H          -0.19831969249442    3.56660952942938   -1.89327550725647
O          -0.43306506071153   -2.71285331339463   -0.09372509032646
H          -0.90691431902012   -2.23566123320304    0.59878423850631
O           2.16006717225286   -2.61103628478528    0.41123935988640
H           2.58997580002383   -2.60528427727064   -0.44572698780271
H           1.20739163413255   -2.81848010575609    0.23034875111203
O          -1.37888111498256   -0.66797223554311    1.62039351190141
H          -1.88880388684924   -0.36712330024620    2.37433917408571
H          -1.48158995539268    0.02878819594099    0.92976965233712
O           0.48353132993271    2.34014030444143    1.69384296746201
H          -0.24422747267835    2.04378404345563    1.12190797190019
H           0.74140950512926    3.19043298210661    1.33483238428270
O          -1.16520127343550   -1.10502784269893   -2.18251224690805
H          -2.03343259062848   -1.30848274007881   -2.53754693071170
H          -1.03450372952217   -0.15106716949679   -2.32876612182534
H          -0.60784502615773   -2.20679294673928   -0.90763451352919
N           1.29103578564094   -0.23342788920715    1.19553591543471
H           1.73531419115647    0.42087791802842    1.83475447406440
H           1.82284607856875   -1.12385772864866    1.01819747046010
H           0.33981923686157   -0.46452939798013    1.54478454419515
H           1.14920181488954    0.26625973450629    0.26509928106489
