    26
        -50.46794332  Gyration_radius:  2.46407822853 Dipole_moment: 2.589
 S          -1.69996024060836   -0.41765348467950    0.57926618318030
O          -1.39945742278675    0.14262272980053   -0.72944798415435
O          -1.47502291225544   -1.84185084034911    0.67181140567217
O          -1.01986891542069    0.31904812780051    1.63648622622059
O          -3.25364486428871   -0.19255266984562    0.78453454142288
H          -3.46357559241087   -0.80808681719220    1.47929877064792
O           1.03054012841945    2.03346845358357    1.91317368087461
H           0.17220973177701    1.57026760377957    1.95377312044290
O           0.09396955937420   -2.16355418359368   -1.47114173725377
H          -0.33909097546886   -1.54694887860209   -2.06608565504975
H          -0.48267986865691   -2.19560012772979   -0.68365706325282
O           2.33043156069879   -1.06096902979027   -0.46517650646782
H           1.68277717075404   -1.60746302162659   -0.95949764129891
H           2.10151081076150   -1.21481489112696    0.47403916464621
O          -0.68052204226020    2.01377604207292   -2.68608161559926
H          -1.34297802726662    2.42019877042755   -3.24588429768704
H          -1.14857286081111    1.38285195018314   -2.12059102589791
O           1.05158565156205   -1.34322938689734    1.90641888743889
H           1.62717238387543    1.51164801930670    2.45567559595030
H           0.29449281015924   -0.72720903735296    1.88638245752554
H           0.65150373817392   -2.21242022210404    1.82037095562703
N           1.07379185537014    1.21036438952601   -0.63840157414835
H           1.20400914628979    1.72385464380095    0.26313629857611
H           1.15908269276703    1.81553406961762   -1.45282902564254
H           1.73099741714468    0.36039875283412   -0.66653342047199
H           0.10129906508868    0.82831905829888   -0.63903976127214
