    26
        -50.46463437  Gyration_radius:  2.47191560871 Dipole_moment: 4.212
 S          -1.70359293996080   -0.67683399368008   -0.47025041042588
O          -1.70672689419340    0.74287676419589   -0.07668869412907
O          -1.70474230315862   -0.85319130697847   -1.90080605622159
O          -0.68257294538170   -1.39274959895001    0.25302000095667
O          -3.10072250977527   -1.25451491995881    0.03281719557030
H          -3.60601745217867   -1.28338749690723   -0.77288137762485
O           2.34891497712779    0.52734022822367   -0.19978701035226
H           3.05309222964663    1.08047043010293   -0.54066017301644
O          -0.84097489244181    2.43189917086535   -1.94600726187666
H          -1.24502063542865    1.88900548487235   -1.23721886403456
H          -1.47916392297797    2.44812497174571   -2.66124867625270
O           1.90708686094919   -2.04549471001196    0.87926016349631
H           1.04281399432177   -2.06615786543786    0.43939011724539
H           2.34425086543080   -1.26195925413649    0.52043116628269
O           0.32390696027824   -1.26326015707027    2.86301463223079
H           1.07347489155143   -1.65828067502448    2.35575283279445
H          -0.45273656799007   -1.62909260397865    2.42306002288284
O           0.72187109637545    0.23427373338698   -2.19647434149951
H           1.75505529662783    0.32852015136291   -0.98079395238321
H          -0.05767938584038   -0.34784068643928   -2.15755234901784
H           0.34331262958136    1.13328750615493   -2.26306049049822
N           0.33817593668993    1.00998951372555    1.54134193988706
H          -0.52097618922732    0.94407255053846    0.92429129648090
H           1.17670956089529    0.93735627232256    0.92213889572917
H           0.34013760116946    1.87660303509657    2.06832133452149
H           0.33212375788462    0.14894345598266    2.18059004931666
