    26
        -50.47190998  Gyration_radius:  2.46904540091 Dipole_moment: 1.476
 S          -0.16120527991179   -1.15583321985215    1.61256141016453
O           0.96870401676806   -0.24795724434888    1.54965805684595
O          -1.13971949889834   -0.82712625122317    2.61947040401750
O          -0.74143105905201   -1.37374370257425    0.29264254607714
O           0.45072152264518   -2.56114676922071    2.06256357696348
H          -0.17673808509592   -2.87007556890487    2.70794192518208
O          -1.10742605607242    2.34397730519344   -0.74685828670998
H          -1.52956698671581    2.11181222912495    0.10374913093511
O           1.66007570917154   -2.10485357749901   -0.58254637345565
H           2.17964531151600   -2.02699785308780    0.21993465766373
H           0.73917756028169   -1.96557434357442   -0.29488191506066
O          -2.05254118227383    1.43674258774626    1.61024828586965
H          -1.75926533125100    0.56842577976794    1.95533858191398
H          -2.23618728913515    1.97636421886510    2.38128862649520
O           1.53074955061022   -0.12270982960463   -2.39686211465145
H           1.72399312195699   -0.93736342016826   -1.88640122571811
H           0.57308856500385   -0.14910464153754   -2.55553085632862
O          -1.22597125797516   -0.11367572964474   -1.97474319807191
H          -1.32157145786644    1.60426413290640   -1.34176605538908
H          -1.07656865214984   -0.56986950630564   -1.11595306727977
H          -1.96860072130241   -0.56206231959793   -2.38152730008297
N           1.35776463011446    1.53141771026734   -0.36245765165297
H           2.09473231650342    2.20118256943115   -0.17622375550515
H           1.24913983570879    0.85955495116800    0.44003262740182
H           0.41185557561126    2.00572336419756   -0.50548924695941
H           1.55714513191390    0.94862913846304   -1.23418879258651
