    26
        -50.45694550  Gyration_radius:  2.7531396363 Dipole_moment: 5.176
 S          -0.27360077177863   -1.52071944450283    2.12285856351487
O          -0.54992247417646   -0.28046765858611    2.83857785934579
O          -1.34620030706094   -1.81088155015542    1.16763074574160
O           1.03901110615477   -1.56439480831778    1.52931687606453
O          -0.33370576301748   -2.68203845595216    3.20325888086574
H          -1.23548089856694   -2.62785810263676    3.50439168024996
O           1.19517618568429   -0.69664553937334   -3.16253119830756
H           1.86460754792253   -0.26295322888496   -3.69319565502827
O          -0.82369165763357    1.92046625013456    1.55377536712207
H          -0.69295429745655    1.07028526745675    2.06853462655543
H          -1.21809746031685    2.53043795279028    2.17898732416053
O           1.69503073769156    2.35824273823038    0.59129401831964
H           1.67283519297856    3.21573887416806    0.16500985023784
H           0.82815049029270    2.23572285222193    1.02675093335163
O          -1.47029536674605   -0.24507698977655   -3.15777539794649
H          -0.50960709765565   -0.39118225585544   -3.29096622677501
H          -1.89948748913928   -1.06271053052970   -3.41493944915649
O           1.70543911698774   -0.10508377996836   -0.53108422845822
H           1.63102865065511   -0.73282378228186    0.22573375200013
H           1.48138046037766   -0.60814353711090   -2.23530897090081
H           1.95180010873607    0.75233470448025   -0.13451644317744
N          -0.96595362993479    0.11570691631007   -0.52531986227613
H          -1.37930021333644    0.05697016468166   -1.47883825382797
H           0.08441258897617    0.07729212607698   -0.61436253069254
H          -1.21776160296197    0.97235114994903   -0.02213344539823
H          -1.23281315645245   -0.71456933252860    0.08485118441049
