    26
        -50.46934683  Gyration_radius:  2.40567816802 Dipole_moment: 4.745
 S          -1.40014878292821   -0.09183420175733   -0.76795236080374
O          -2.42891439575945   -0.49195747401234    0.33567964007080
O          -1.99196137840439   -0.27945017764841   -2.06363631924747
O          -1.02365043112428    1.30906947781625   -0.50576531989032
O          -0.23028556485917   -0.95970306462146   -0.57911079776294
O          -0.44160525509959   -2.16863295937995    1.74950599103314
H          -1.38384564802211   -2.18108475246421    1.93297333838473
H          -0.36347721789460   -1.85705992869045    0.82054017658506
O           2.18685179274793   -0.14135439992877    0.19273180351241
H           1.39866007464129   -0.64729841394806   -0.09170741893429
H           2.00379842976552    0.06023170274853    1.12296248564911
O           0.93222634472587   -0.11365421328389    2.70529391904946
H           0.48684167797833   -0.95081857633116    2.41848338775463
H           1.26467891152765   -0.27402673612010    3.58960229474407
O           0.30859335844274   -0.37092651434532   -3.35053576558592
H          -0.62210049769739   -0.32379796188007   -3.02961624102917
H           1.04903220762583    0.78319899710968   -2.47215777214433
H           0.61803159397141   -1.23283707685304   -3.05960527513747
O          -1.44777864948390    1.13795480930961    2.09969459729735
H          -1.24223397093332    1.60172913952374    1.27096622569876
H          -2.18971404404635    0.07014082899541    1.12373250102450
H          -0.59470706820555    0.79648148584983    2.42669519207801
N           1.26448273201353    1.45543204146807   -1.68357894861063
H           0.31888375521920    1.58590809630965   -1.20771533672687
H           1.66708308741607    2.32578548985670   -2.01200379910076
H           1.86125890837028    0.95850439227385   -0.96547618790697
