    26
        -50.47229291  Gyration_radius:  2.48073520303 Dipole_moment: 2.001
 S           1.25731200732213    1.78217033601147   -0.66258839933197
O           0.39835044627932    1.61727701498901    0.50615123498836
O           2.50460373335295    1.05611177469772   -0.52135290853506
O           0.54725368900708    1.49915878298392   -1.89310750369008
O           1.65560041216651    3.31509413227713   -0.71974682929808
H           2.38397114945670    3.34124122305206   -0.10834031944639
O          -2.19852260236620    0.98720886371255    0.82813556789690
H          -1.31455011550764    1.40201687146701    0.85174437569822
O          -0.71418412622548   -2.17527177972739   -0.73411658989480
H          -1.03380489400229   -2.10321855646725    0.18341828784226
H           0.24492230968387   -2.00048372318166   -0.68824748819338
O          -1.40367807202172   -1.45884713901623    1.83323669468851
H          -0.48012645286703   -1.10567078325281    1.98620214304739
H          -1.65218456090416   -1.92418970228869    2.63208319556142
O           1.91686948061956   -1.46500467594743   -0.45861782197869
H           2.15238657982347   -0.50498409286435   -0.53571643249308
H           2.60615264893949   -1.94236994587842   -0.92305656502049
O           1.00989516596768   -0.49209503208721    2.00744186364166
H          -2.09236336146374    0.14790467130096    1.31130853547256
H           1.52266545292606   -1.01088409424419    1.37243302453650
H           0.85909581207586    0.36595058002991    1.55854091860366
N          -1.65793989764837    0.13187297115288   -1.59227018121624
H          -1.33493723126311   -0.85974772072448   -1.38686386441008
H          -2.31682203065689    0.16844761233539   -2.36099926684538
H          -2.06446381653114    0.51792198858444   -0.68648471736127
H          -0.79550174623361    0.71039043310616   -1.79918694425030
