    26
        -50.45602521  Gyration_radius:  2.61165962656 Dipole_moment: 5.367
 S           0.58013932722463   -2.37109172962904    0.86932317302698
O          -0.82176506777634   -2.74579421984791    0.97005394646430
O           0.89713062306740   -1.61662505362316   -0.31610638413353
O           1.04156811326179   -1.68129829148797    2.07986774674318
O           1.39769500513283   -3.73131851998760    0.79490821905081
H           1.04339311628501   -4.24407429618027    1.51616492771050
O           1.76524818230679    1.42893044651234   -0.85432221283953
H           2.65283610142578    1.06948081062427   -0.82191484317822
O          -1.85485649746884    0.97483517366745   -1.56131044828345
H          -1.49628680426985    1.77171259054296   -1.13735298082002
H          -2.06224836657608    0.36441219837301   -0.83849418645552
O          -0.40712865032880    3.09016549492039   -0.41093196517076
H           0.45170658376416    2.70991882325863   -0.65164146837426
H          -0.53069698863852    3.85861077673100   -0.96999442192826
O          -2.01586097689092   -0.47687408451009    0.80052062256884
H          -2.81556721529086   -0.55872292658894    1.32313640631732
H          -1.59881732828056   -1.38354366749432    0.79899342032291
O           0.46087885752091   -0.06900339700311   -2.46352626689823
H           1.28682322244121    0.87703129984416   -1.56625869998786
H           0.56982049924504   -0.83525472978863   -1.87412768690872
H          -0.45882120436343    0.24498356514753   -2.32142085460260
N           0.38635229696688    0.69025143330304    1.33817956263539
H           0.76602127356929   -0.23582554076693    1.73298432454432
H           0.93678918085577    0.93994031206732    0.47201901843590
H          -0.59767570668857    0.47971960523053    1.08000349032099
H           0.42332242350641    1.44943391667562    2.01124754143542
