    26
        -50.46975312  Gyration_radius:  2.44442683268 Dipole_moment: 3.617
 S          -1.79160136936369    0.39812617034469    0.46138082803533
O          -1.07353764799711   -0.74627147849712    0.98920834954139
O          -1.78805628964979    1.53929435389064    1.34264408089832
O          -1.34004921548619    0.71932962651705   -0.89452094464683
O          -3.31074813009031   -0.03184692447507    0.29986248009631
H          -3.69886155496893    0.41687304732711    1.04273721036996
O           2.40858833607227   -0.90349912443548   -0.41340459435847
H           3.15007468709605   -1.33769037310150   -0.83572860606965
O           1.31966772687659   -0.32271473404016    2.20242791845121
H           0.42251628422385   -0.58475387377561    1.92959924249286
H           1.90306638066102   -0.63471816884117    1.49895202383633
O           0.76730834800544    2.22617914387812    1.72458404249375
H          -0.20859102090565    2.14342089018193    1.71334140948528
H           1.07889836834628    1.39275931217961    2.14863413957184
O          -1.37385070802192   -1.35774789897305   -2.55796340170600
H          -1.41483023685410   -0.54185877126257   -2.01865392902731
H          -2.26349064173518   -1.71426434623743   -2.56700999892332
O           0.28784666777512   -2.35710128190825   -0.65961997999623
H          -0.18922334889877   -2.16580125388510   -1.48985694246888
H           1.62010297983152   -1.51995988893758   -0.52734448150071
H          -0.25242670997214   -1.92703884216296    0.03122282190497
N           1.17099671232479    1.47208258830159   -0.71107215644623
H           1.52381470908509    2.13246195029013   -1.39467703231094
H           1.75679329228205    0.60739354644507   -0.67598462256515
H           1.11678639079484    1.90325312379506    0.28817175815462
H           0.17880600057011    1.19409321739046   -0.92692962530501
