    26
        -50.46975299  Gyration_radius:  2.4445618864 Dipole_moment: 3.617
 S          -0.42830077043568    0.35255690370572   -1.81115499093139
O           0.06004084864896    1.66861576719653   -2.14039105919167
O           0.61587081793797   -0.57122037620852   -1.41058219803915
O          -1.51412122546328    0.37285508458097   -0.82837082646544
O          -1.08264922998844   -0.22193620840295   -3.13783938221274
H          -0.69268243276556    0.35268697790736   -3.78710085123869
O           0.85109275486534   -0.78057846301835    2.33411120733623
H           0.89108304920325   -1.24201385358038    3.17208307907834
O           2.55258459937312    0.32255051739231    0.27113392378238
H           2.25403926426778   -0.10195110747336    1.08549026284024
H           2.01139712190237   -0.06814524754631   -0.43775375768692
O           1.26654900585830    2.62992932950543    0.04274703094401
H           0.87828211673674    2.46949392270868   -0.84206491137239
H           1.97563756200783    1.95035386050310    0.12554038738772
O          -2.46613411072605   -2.03391958479356   -0.20979151143126
H          -2.21404748936158   -1.12026922570326   -0.45490087704485
H          -2.75674709763196   -2.45516069484010   -1.02023058908639
O           0.13317464230168   -2.41608612810995    0.46866380476084
H           0.58395600164304   -1.46776527084708    1.64760905103885
H          -0.83873994105716   -2.46675643472850    0.38884310319091
H           0.40875527638939   -1.87765462981286   -0.29831126518053
N          -0.51525652664205    1.34598111243543    1.39947102601328
H          -0.02696792416119    0.56464908489434    1.89278391308712
H          -1.13703194269072    1.84823287114930    2.02320907953775
H           0.23049905278627    1.99939461023324    0.94749358379571
H          -1.04028344299762    0.94615717285371    0.57931274708795
