    26
        -50.45482834  Gyration_radius:  2.44401828861 Dipole_moment: 1.920
 S          -0.78629164204249    1.37259525034618    1.08315815791538
O          -2.07693981942955    1.07237518497240    1.64414435311590
O           0.29443109065246    0.52733650838172    1.57994240784801
O          -0.78893924996409    1.43239702049007   -0.36740584996703
O          -0.38848860262090    2.83093954555248    1.59939804737219
H          -1.18251894818227    3.33159341069012    1.44595268655311
O          -0.60177760065247   -2.30054744750511   -0.97363677243403
H          -0.90963161382777   -3.14227592152637   -1.31111738481117
O           1.39138269142538   -1.73932898220286    0.77901037313656
H           0.68740992405196   -2.11315546671252    0.21343780543710
H           0.96324203929991   -0.99584111150025    1.25563024430915
O           2.61454741603111   -0.26926522947193   -0.84321196887056
H           2.65272545315332    0.60539044463599   -0.33263594246562
H           2.23786126621166   -0.96671694322990   -0.14593118083089
O           2.28988610081107    1.83079660210490    0.57570025963079
H           1.47161238160698    1.45940825267505    0.98626384679895
H           2.81707260940784    2.18546951279029    1.29317037753297
O           0.47608792388156   -0.06242948059869   -2.08611847054443
H          -0.00593293314382    0.58895979709094   -1.51425772279362
H           1.76363360813867   -0.14652759217292   -1.49690004860096
H           0.06729944805977   -0.92465139988190   -1.87684032427713
N          -2.69054273877772   -0.89023472175597   -0.27249483340879
H          -1.41908069243452   -1.79348573309812   -0.65294935586559
H          -2.43239718580511   -0.26084694070303    0.49128894932333
H          -2.88658719545402   -0.28888686405311   -1.06470511737167
H          -3.55806371039949   -1.34306769531914   -0.00889252673500
