    26
        -50.46245839  Gyration_radius:  2.53055309622 Dipole_moment: 4.466
 S           0.85387732471796   -1.64968560729252    1.26469924120694
O           1.41255813714706   -0.30023675782985    1.09385890280834
O           0.47010178295411   -1.89719618755394    2.63681247174998
O          -0.19790425048220   -1.89800205866470    0.30618783517593
O           2.03228889972711   -2.65239682189480    0.92244464957892
H           2.60391364469458   -2.61196408387424    1.68377661618249
O          -1.59835982312676    0.87910186491593   -1.70404842362053
H          -2.45278241393710    0.55055291506700   -1.98450698958899
O           2.10403450055807    0.73268078319471   -1.30358726796418
H           1.62431413505178    1.57363212702053   -1.23433840170767
H           2.06840660739963    0.34553654695311   -0.41204412803673
O           0.26332912440990    2.87706866737138   -1.24951712566395
H           0.50303246388155    3.47581450450211   -1.95818745664860
H          -0.44717901158893    2.31199634891650   -1.59148312401510
O          -1.96220724958013   -0.98306636893000    2.29289559517455
H          -2.21993478266963   -1.61180690314699    1.61182065765517
H          -1.10645819371446   -1.34108047163094    2.62609976262402
O           0.16098001555078   -0.90720570905685   -2.14861069616793
H           0.99074358832429   -0.39326862318942   -2.02332710499054
H           0.05691816706205   -1.42747808440557   -1.32641392505917
H          -0.92193443263591    0.15907031057346   -1.96794339688497
N          -0.85982524112504    0.97855756242217    0.89535587361561
H          -1.43364216334110    0.32440603590730    1.50024273582114
H          -1.20499979699907    0.94701705799342   -0.09560474815414
H          -0.86285611045294    1.93596304663350    1.23393254237466
H           0.12358507818194    0.58198989598942    0.93148589454122
