    26
        -50.46361288  Gyration_radius:  2.49259017525 Dipole_moment: 6.637
 S           0.31540717090097   -2.31372723574288    0.29543920867161
O           0.76292269415172   -2.51087552129426   -1.06282791365351
O           1.40347720568695   -1.90964873704105    1.18739590870393
O          -0.82127775329900   -1.41758920397794    0.42544462533433
O          -0.17833389002507   -3.73218035864105    0.80613340510273
H           0.43322393112420   -4.30738611586699    0.35908283184140
O           1.28650286721356    1.74022317864075   -0.78918465093859
H           1.97760378485427    2.20739235192861   -1.25992933637905
O          -1.97923486210365   -0.05161809734623   -1.59932084485045
H          -1.99736601043861    0.80898900307250   -1.15740356210737
H          -1.71894043041497   -0.68739896391887   -0.90850679381734
O          -1.32793359109041    2.37491726186801   -0.27109055390290
H          -1.59119357237634    3.19496787039298   -0.69010436625829
H          -0.38486321497809    2.23128922136983   -0.48459269926563
O          -1.35403877568662    0.69696097219530    1.96167936439719
H          -1.60885952059301    1.34557672478672    1.28833466442946
H          -1.37518980048320   -0.17023982966893    1.50779906535407
O           0.59747415313622   -0.17755856067689   -2.30260264557428
H           0.77512058468110   -1.06698197021458   -1.92974640319701
H          -0.38463364998896   -0.11616787460827   -2.29487416620919
H           1.04097270172685    0.94575498512272   -1.39101530248359
N           1.24848077874949    0.60548761467940    1.67829878057377
H           1.36881044005138   -0.45287045205467    1.51165455439876
H           1.41179864456884    1.09222793129588    0.77403936294818
H           0.22192601703299    0.73806587174691    1.94385374779363
H           1.87814408759904    0.93238996395238    2.40204373908861
