    26
        -50.44449798  Gyration_radius:  2.65635915078 Dipole_moment: 7.376
 S          -1.18314402790090   -1.48553570224882   -1.73623158058835
O          -0.03974184042007   -2.40046772501200   -1.63202150105787
O          -2.03315209458548   -1.52160115364099   -0.57577176115110
O          -0.73404199988531   -0.14935408864372   -2.10677374794874
O          -2.05597465492446   -2.00108286967828   -2.95599953326811
H          -2.63930339772076   -2.64562968212257   -2.56548908921073
O           1.68540053517409    0.06288902079360    0.99806875899313
H           2.31478145588690   -0.34939351278659    1.59272187481977
O           0.99716288250827    2.48370657058597    2.39896142082643
H           1.37127470974882    1.70080807556720    1.96996143230196
H           0.76580482836838    3.09540518105247    1.69554153463013
O          -0.48353879245911    1.81611907366029   -0.25432044447110
H           0.29561550374335    1.38039433981556    0.10357116530441
H          -0.80359328022195    1.22966807626396   -0.95957152162745
O          -1.57348221355554    1.37624034631767    2.27954604528429
H          -0.80878960196152    1.81314017010933    2.68671329058179
H          -1.56444229150606    1.66937277900379    1.35392213604156
O          -0.54347181086230   -0.97493489579251    1.56922615090879
H           0.77935175071014   -0.38893358083033    1.22567487242940
H          -1.03883598432458   -0.21812887471213    1.97024937061006
H          -1.10056332773404   -1.26708782148306    0.81945663175100
N           1.73962623971979   -0.63025624641561   -1.58301471094658
H           0.98422943316988   -0.04213378103240   -1.99744989035572
H           1.88872388780270   -0.33958188241435   -0.58287326349690
H           1.18713034995495   -1.56947605534017   -1.58408165718047
H           2.59297372127695   -0.64414578101799   -2.13001599318425
