    26
        -50.46843420  Gyration_radius:  2.53556144853 Dipole_moment: 4.829
 S           0.89129828688366   -0.24932380213847   -0.02844854854101
O           1.95401889943373   -0.18605733676487    1.07203983679767
O          -0.43234840958502   -0.21655682300431    0.63365093563270
O           1.03445615162103    0.90928437014345   -0.90893411850989
O           1.06043241645396   -1.49313365748991   -0.75064486143471
O           0.57250596115817    3.23719733729706    0.22517603049138
H           0.67707344088060    2.39141518448876   -0.26485045812912
H           1.17172627003165    3.85902925256729   -0.19135808226367
O          -0.71664609898758    0.52962845792518    3.18262390029590
H          -0.44776126100429   -0.24201627775461    3.68396371357048
H          -0.72236014064866    0.25730482993939    2.24225969347837
O          -0.07781990706091   -0.13798426022068   -3.02122399454644
H           0.39252241999098    0.38245604785108   -2.32666200201048
H           0.47641514937527   -0.91291250618308   -3.15168829165071
O           1.45009893313336    1.91596388862548    2.38021958981929
H           1.11898106181875    2.54241678938873    1.69877469603495
H           0.65382457824180    1.60630270926958    2.85937511720664
H           1.81556897843285    0.68302789846701    1.61006729062294
O          -0.77666485270079   -3.34343074352334   -1.05682791888843
H          -0.74787483244883   -3.93592738020776   -0.30441467608391
H          -1.77563802657991   -1.99985849348191   -1.28683366393702
H           0.01002349524648   -2.75324534145665   -0.96591624101210
N          -1.91829964986527   -0.96514767491360   -1.33225993163316
H          -1.33128077729974   -0.60274841806645   -2.14288015711874
H          -1.43858884276720   -0.57916617648959   -0.45564480451199
H          -2.89366323374741   -0.69651788426861   -1.39956306363756
