    26
        -50.46178310  Gyration_radius:  2.41377700777 Dipole_moment: 10.261
 S           1.46986309077727   -1.05839560981777    0.37786708260478
O           0.93763496428492   -0.57449115262665   -0.89923880885001
O           1.11709965183506   -0.10054655059553    1.44072017853914
O           1.13443779594607   -2.40773027841103    0.68080952204821
O           3.04205944670776   -0.95718381205764    0.23466921682306
H           3.21088427371032   -0.06271443385003   -0.06198755776897
O          -2.12269955604396    1.22854603077435   -0.09009136198429
H          -2.96780316551420    1.63162492791407    0.11282161593425
O          -1.57733276509798   -1.05173994203671   -1.80041068156807
H          -0.62503939039270   -0.95446348110374   -1.63664617321064
H          -1.97386359084948   -0.25013786463958   -1.43821634359178
O          -1.58403328937794   -2.73521379351810    0.36446955188300
H          -0.62823701782008   -2.87308393544077    0.46173712923807
H          -1.70934681337083   -2.34468338820906   -0.52194331054345
O           2.27225257180157    1.54402315108103   -1.34443523951765
H           2.49708031836607    1.67305996264834   -2.26740664245775
H           1.76014397895890    0.69089700683031   -1.29852494242705
O          -1.57322882849798   -0.49540442022807    1.72346434957942
H          -1.97570903599334    0.51665517211961    0.62119168956385
H          -1.72900075446367   -1.39516639937347    1.32956565190123
H          -0.61144096966346   -0.44451300839180    1.84097532452381
N           0.32085604156004    2.12308930601665    0.43140554863278
H           0.97144199232810    2.23894002961249   -0.36590505543180
H           0.34924151137681    2.91891146756758    1.05979698025423
H          -0.66428759440963    1.91574909563789    0.11262705708303
H           0.65902712382465    1.22397193972613    0.93268522900001
