    26
        -50.46796545  Gyration_radius:  2.39151163082 Dipole_moment: 2.371
 S           0.08480845310279   -1.81972708307680    0.02046466725885
O          -0.39547748090391   -2.02658494704952   -1.32767086975577
O           1.50964199745979   -1.47629507992853    0.05516522867398
O          -0.69688610393663   -0.88764784723847    0.79890306659357
O          -0.04297041108175   -3.21603493694032    0.76107536349311
H           0.29943694075116   -3.83247352721940    0.12164612964722
O           0.26080529403242    1.75295535360633   -1.26492387532964
H           0.87715772190240    1.24063948840143   -1.82901641408219
O          -1.95302590919209    1.53876025256411    1.02583862779594
H          -1.66100564076456    2.09929597815356    0.30286944494668
H          -1.64206312876595    0.63978335256888    0.81963675836432
O          -0.24924116854279    0.84242036680314    2.99274274469226
H          -0.98397590693204    1.33143096504913    2.57346257134596
H          -0.45961347569317   -0.08279952856774    2.81641567151691
O           1.62914361065761   -0.28350259430343   -2.36080097398528
H           0.95481410611270   -0.76828048683574   -2.84504008324092
H           1.74316064510429   -0.78492799963133   -1.53402932583797
O          -1.85852490524241    0.15550596475041   -1.68233696847098
H          -1.38176908460500   -0.69750928177117   -1.62088375781646
H          -2.63226615751119    0.07379955700198   -1.12125711362614
H          -0.59687333879763    1.30420333138008   -1.42267607692254
N           1.45857754889371    0.99753004632295    0.95869681885273
H           1.59839438685215   -0.01180365668976    0.69466896707066
H           0.93765527818833    1.42759568561336    0.13134533976880
H           0.85179543478576    1.02161377387231    1.82818082656379
H           2.34830129413498    1.46205286317627    1.10752323248809
