    26
        -50.47361572  Gyration_radius:  2.43352876819 Dipole_moment: 3.318
 S          -1.35160258992377   -0.57219024568221    0.39907194865638
O          -0.54417921840365   -1.68811486034976    0.85475239160669
O          -0.89683229719783    0.67868026381923    1.02831626940473
O          -1.37522771051740   -0.44742127106791   -1.04553392179845
O          -2.82754694776878   -0.81031846124077    0.84754502645352
H          -2.76677061203093   -0.86534004128028    1.81954569613725
O           2.54347144351615    0.26940960746054   -0.67460482433826
H           2.47272299605458   -0.03958174670740    0.25432940912534
O          -0.76750118340151    1.34094641867920   -2.90675640548472
H          -0.28990106259059    0.81911251944519   -3.55607128202768
H          -1.21232044543986    0.69115343193032   -2.32551582837923
O           1.68164008947868   -0.53215524775986    1.73349407117750
H           0.91870386275376   -1.06212882042650    1.42011276235022
H           1.30151624364433    0.20406796382266    2.21732731321203
O          -1.64531557266425   -0.69785101090814    3.22002871684330
H          -1.27937054367795    0.04151395877285    2.70972716434015
H          -1.08462642319350   -1.45548918528567    3.02020791061514
O           0.93882606338368   -1.62889613342860   -1.68241832615772
H           0.99128526594761   -2.36276551682045   -1.06484731133209
H           0.05194775298133   -1.24897849177141   -1.53375869377353
H           2.12144107954646   -0.44881977131917   -1.19612173475015
N           0.60854826119734    1.99576446407624   -0.70713517088916
H           0.82350235942463    2.96141150247575   -0.48479262242399
H           0.12532009715812    1.91209505978961   -1.63595077829761
H           1.49649880621231    1.37156432725767   -0.72506121427119
H          -0.03422970449226    1.57433128653316    0.01410944399646
