    26
        -50.46907340  Gyration_radius:  2.47620884558 Dipole_moment: 2.898
 S          -0.79777201607173   -2.08455988299146    0.01558831924430
O          -1.00168296148785   -2.12839798794010   -1.41271129677903
O           0.57610587096779   -2.38681285232103    0.40100957602287
O          -1.26780536070930   -0.85446849751577    0.63611126245386
O          -1.69798368000369   -3.23834479450197    0.62983166247339
H          -1.49065386684481   -3.95922494298910    0.04513066325810
O           1.93348586816234    1.19871669595649   -1.00019169746624
H           2.62565823084654    1.43000079633270   -1.62038802573878
O          -2.05138217020063    1.14878670587162   -0.87174031218300
H          -1.81165529756087    0.36970053722608   -0.31498922349269
H          -3.00809178380219    1.16828037329808   -0.91140206547532
O          -0.09042099184777    2.64640047976534    0.38588224109632
H          -0.85918630661513    2.30816453158849   -0.10206265193938
H           0.68311195392969    2.34194529140778   -0.10929520216113
O          -0.15245260817389    0.88459687415407    2.38914084552960
H          -0.18632716404153    1.68427064738714    1.81184406132555
H          -0.76337387530938    0.25225021674618    1.97069020598345
O           0.01950212335037    0.11700128457052   -2.36746595270937
H          -0.26023035974920   -0.79080127597538   -2.12523525467848
H          -0.74679466177040    0.66408931085867   -2.13470360792556
H           1.21911573628395    0.74733202097556   -1.54295345293498
N           1.85895975717150   -0.30317790645073    1.25566845596223
H           1.38682518362673   -1.20204707851765    0.92818556224648
H           2.05521721156388    0.27516462364744    0.41403076805770
H           1.12353044122549    0.21557893189011    1.85302118481351
H           2.70430073706014   -0.50444409247312    1.77700393501652
