    26
        -50.46911886  Gyration_radius:  2.45475044457 Dipole_moment: 3.991
 S          -1.06860160882881   -1.89140801514550    0.54401299970229
O           0.29849711419435   -2.00598112017577    0.02264061319846
O          -1.20973995345437   -0.65703762460770    1.30422634019611
O          -2.08281189979295   -2.08881671906651   -0.45044516839125
O          -1.22898830084545   -3.07922164020878    1.59125677304288
H          -1.83654504401383   -3.66130284230546    1.14571503247363
O           1.83946484215478    1.24737140833895   -1.52766478420874
H           2.37507422386448    1.46936873080860   -2.28953468293610
O          -2.08613533726315    0.71084947877239   -0.77055466390897
H          -2.86257652476439    0.24445639202645   -1.08918726942041
H          -1.83673702777120    0.24182731840660    0.05487389546523
O          -0.13975456234142    2.64064600146426   -0.04618177647990
H          -0.93741727157290    2.19471458755040   -0.36082878403890
H           0.57910538747294    2.33864743670657   -0.62053568764538
O           0.36638193627880    1.31195101819778    2.21756183736316
H          -0.34855998555838    0.65325801297329    2.15277497838370
H           0.14822905581185    1.98304753623774    1.52833865546606
O          -0.03163662956800   -0.42992436892928   -2.14634074310931
H           1.13308503125592    0.61084979103200   -1.85241314638784
H           0.07496162358325   -1.17663433318021   -1.53220141952580
H          -0.84991307429539    0.01558700040783   -1.85237726351939
N           1.97309062939902   -0.14084523516759    0.80073815644881
H           1.34161137038714   -0.95275540158905    0.53862439279783
H           2.15017620725946    0.40942367971859   -0.06218192564306
H           1.40397998490616    0.48587561440918    1.48442194736121
H           2.83575981350167   -0.47394670667473    1.21526169331611
