    26
        -50.46359440  Gyration_radius:  2.59937813037 Dipole_moment: 2.152
 S          -1.05417286222399    1.90996979264867    0.23919917853685
O          -0.17080603803510    2.94591130344530   -0.22656262488244
O          -1.74489783018535    1.18589037633806   -0.82702153214591
O          -0.44228339869210    0.98179836912416    1.17604459086225
O          -2.21651774752675    2.65213452185344    1.04347493087294
H          -1.83227355911569    3.50360057717695    1.22708683338158
O           3.07077911142801   -0.45048433993549    0.75272945550758
H           3.93602723090513   -0.41972411739957    0.34219521318192
O          -0.23422099434138   -0.27473390348583   -2.36964326395151
H          -0.56967646871231   -0.35274686604239   -3.26366462336401
H          -0.85452095659763    0.32573453398058   -1.88817611883222
O          -2.92877465220725   -0.91340143990067    0.32435433809397
H          -2.62150393137091   -0.11227110343151   -0.15021764146998
H          -3.33334750297358   -0.59301228310290    1.13166497931832
O           1.76849899169726   -2.69339773954271    1.29331165598446
H           2.34032874700426   -1.91520196650817    1.08479860564883
H           1.75533380025870   -2.75430260433364    2.24982011835692
O           1.70848492505419    1.14023112025132   -0.91615483999131
H           1.14501771244689    1.88124538583826   -0.63359384864753
H           2.51520504817122    0.17799756464122    0.23969760005650
H           1.21288814327626    0.66725267358349   -1.59781988300099
N          -0.28218909606264   -1.41145144881149    0.15089019500657
H           0.41245990365299   -2.06171005034271    0.58916209265106
H          -1.27250723684131   -1.67948394231406    0.27286795131751
H          -0.21241645087673   -0.45516770293322    0.60861270071979
H          -0.09491489809546   -1.28467671079912   -0.85305607330704
