    26
        -50.46843397  Gyration_radius:  2.53512388417 Dipole_moment: 4.820
 S          -0.49157498248998   -0.75603354098383    0.21590836321222
O           0.65938285266954   -1.08563747749480    1.05545696181504
O          -0.59723986101793   -1.64828130059777   -0.91980180745532
O          -1.77495889708479   -0.87743784995918    1.04220696040674
O          -0.39274404520302    0.64815667603578   -0.24237600875305
O           1.08692123703883    0.56873325797314    3.05519174781449
H           1.42900128710864    0.03390399236123    3.77360369392885
H           1.01901397039250   -0.03166270507523    2.27973254356425
O           2.27760640306566   -1.79858475848412   -0.85992734884054
H           1.78149416120717   -1.59674551930394   -0.03067962995952
H           1.76700691675587   -2.49920063898201   -1.27601953439131
O          -1.86905870906486    2.59391952503099    0.83883257688904
H          -2.73225672849979    2.48352506539265    0.43659962776283
H          -1.27392138844205    1.96034196934757    0.38842685490181
O          -0.40865513686055   -0.93830528238366   -3.44058971784880
H           0.84047270275666    0.03225153158855   -2.84445181750627
H          -0.55288651044919   -1.32005922311210   -2.54122751402614
H          -1.27280175140139   -0.66379785662911   -3.75018956604914
O          -1.56746702518355    0.85178596733995    2.87259322442643
H          -1.72566463904098    1.65644739603122    2.33695628025536
H          -1.71807712009968   -0.21652121302816    1.83217592810959
H          -0.60642572616804    0.85918838337220    3.07958140160970
N           1.42194891776417    0.38609765192265   -2.05097696808956
H           2.03345639993815    1.15189838837217   -2.31102877096725
H           1.94867563188260   -0.44819628981994   -1.65148797657821
H           0.71875204047268    0.65421387118579   -1.28850951426600
