    26
        -50.46361278  Gyration_radius:  2.49260370834 Dipole_moment: 6.649
 S           0.37097711855652   -2.32399068043816    0.03090852698318
O           0.81957717228442   -2.35232686046671   -1.34092748745989
O           1.45190190161059   -2.00096153628091    0.96379730673179
O          -0.78562081715840   -1.47525097614180    0.26324642733386
O          -0.08921190949035   -3.80270823118831    0.37454667194739
H           0.53988320602456   -4.30878763223727   -0.12820303625516
O           1.23985249995039    1.84895524210112   -0.58956935642825
H           1.91462707011963    2.38618803168248   -1.00615129735976
O          -1.98368168420259    0.08228638795152   -1.59304340384861
H          -2.02177826568107    0.88668703624650   -1.05669288480846
H          -1.70523104370819   -0.62075422872133   -0.97867237769476
O          -1.38567601961004    2.35658123133145    0.00384526754006
H          -1.66828395361085    3.21585054346334   -0.31098731773343
H          -0.44066678459007    2.26066756380289   -0.22739647933392
O          -1.36062694387684    0.43754353152197    2.03124565340933
H          -1.63316079163168    1.15192876169631    1.43573255965024
H          -1.36446929217792   -0.37302800889817    1.48227133066330
O           0.59171377447467    0.10034265533746   -2.31132377802154
H           0.79253435128192   -0.82068165316365   -2.04104955327724
H          -0.39156562407472    0.13629257072197   -2.29468300121738
H           1.01129994011162    1.12264738352920   -1.27822234304413
N           1.24178468229062    0.43948774627707    1.73278544745477
H           1.38580415346899   -0.59041336560468    1.44813498244779
H           1.38939336976450    1.02886658582794    0.88904087883370
H           0.21361134940589    0.51693758873679    2.01385054505702
H           1.86701254046857    0.69764026291322    2.48751669843128
