    26
        -50.46373166  Gyration_radius:  2.44880995005 Dipole_moment: 3.693
 S          -1.01689617369923   -1.06254388034035   -1.32691023739764
O          -0.80714174807228   -2.46849733461353   -1.48446035573646
O          -1.66453982290455   -0.64813183896233   -0.09428228444333
O           0.19759852038794   -0.27242024788885   -1.56171435442046
O          -2.02803369359844   -0.61379589375151   -2.48898336734711
H          -1.99673738200025   -1.34666037942579   -3.09585774670304
O           0.46764141465245    0.99597079256716    2.48891195917972
H          -0.22814669168988    1.25962652008519    3.09250232770706
O          -2.28967771779994    1.83121952724282   -0.73796636067073
H          -2.21391287623316    0.90587602944839   -0.41828334567163
H          -2.54556009044947    1.75139456770796   -1.65898578421862
O           2.72404291421559    0.70538354496046    0.61483604043958
H           2.70180408847732   -0.21102163226425    0.32068018405046
H           2.43524359826127    0.69830211530197    1.53175900281744
O           1.73776811369342   -1.96667623384983   -0.22517926554891
H           1.26728885304392   -1.35197929678442   -0.82156594668000
H           1.48871183422787   -2.84127458973657   -0.53484697030173
O           0.01608168277584   -1.47243335155737    1.82977597372759
H          -0.73396468145840   -1.30679705480016    1.23066497142877
H           0.74299149555126   -1.76738317209952    1.24865136465331
H           0.32757950150329    0.01729777065668    2.32474785832324
N           0.28863264179302    1.86402068213492   -0.04273472513301
H          -0.67110762760184    2.20745899035837   -0.25577078456968
H           0.36963755228903    1.57645416276395    0.97080532880527
H           0.40011313122749    0.99650166742890   -0.63903507650676
H           1.03058316340216    2.52010852541032   -0.26675841578781
