    26
        -50.46309156  Gyration_radius:  2.44657322151 Dipole_moment: 4.782
 S           0.91610103374164   -1.75691518831830    0.06585906462208
O           0.11578132827585   -2.94230079258852    0.17698515439660
O           0.86665060144287   -1.06997593238845   -1.20628790003181
O           0.72026087504129   -0.81625340888637    1.17963547012971
O           2.44517543318746   -2.22822658765628    0.20939050940468
H           2.39188045601573   -3.01964749217332    0.73692135513037
O          -1.23339354459686    0.72631031576268   -1.65295072587342
H          -0.71775519057836    0.31937531401017   -2.35464386976187
O          -1.89320495275716    2.36533735041289    0.58795705005566
H          -1.95329892896408    1.92688729489022   -0.27244338921538
H          -2.77380407131069    2.68377016178168    0.79328434326046
O          -1.72427837948174   -0.02180569782519    2.12986902290406
H          -0.81726490195438   -0.35564194184863    2.04577437774700
H          -1.71945188568143    0.87667122337952    1.76629499934093
O           2.94377827749568    0.54530385899069   -1.19524778958284
H           2.25621325692762   -0.13650303588046   -1.36375688253871
H           3.64334224654029    0.08430460373527   -0.72922461324392
O          -2.02237129700011   -1.31304909855850   -0.22571970368121
H          -2.13595981713576   -0.97279080119369    0.68631719993709
H          -1.59021394584724   -0.06138769199338   -1.14851524822518
H          -1.36004512709703   -2.01949933424682   -0.16249193051569
N           0.73738231468978    1.48031869649485   -0.00412584440106
H           0.49663171917525    2.31984983451744    0.51494366038620
H           0.74391565165039    0.60918131686581    0.61057985120709
H          -0.00615941649139    1.27234628670445   -0.72928052664158
H           1.67008826471101    1.50434074601961   -0.45912365481235
