    26
        -50.46843433  Gyration_radius:  2.53582251296 Dipole_moment: 4.829
 S          -0.44351648886291   -0.80736570746238   -0.09195386311471
O           0.03177194677693    0.48667285796744   -0.63146008833399
O          -1.82182672763828   -0.69573610114793    0.33817170501753
O          -0.37799847637821   -1.82868626953175   -1.23088279270855
O           0.42852757108614   -1.24007857615641    0.99913757046885
O           1.37192078114809    0.64877486641989   -2.93624780579978
H           0.90519251360242    0.69574702163812   -2.07690045689258
H           0.69111659662651    0.58210486817649   -3.60793180465365
O           2.99270874437749   -1.31759588692293    0.41795988712789
H           2.05811242561194   -1.22990822682173    0.70983686213362
H           3.35413729400616   -2.05722527499256    0.90946558780185
O          -0.78405585917895    0.03615757065729    2.92174637379449
H          -1.67284423437921   -0.32261138715808    2.84391021256168
H          -0.24172075716293   -0.52671387649267    2.31876050283608
O          -3.23287035353262    1.51783714261454    0.38683578026699
H          -3.63546812116571    1.64743823772437   -0.47288196692706
H          -2.82945718744386    0.61668633693122    0.36300493037468
H          -1.78391295361435    2.16627821623979    0.96745698291168
O           2.01983531434232   -1.80345897027142   -2.02669227810860
H           2.01197964145017   -0.94494065513214   -2.49832241147504
H           2.53771398360274   -1.64696908170287   -1.20585046181906
H           0.59705622519430   -1.88583608425164   -1.56238217204206
N          -0.78011933126753    2.05952265053102    1.23938620389088
H          -0.32059209081501    2.94208535282040    1.43418909302870
H          -0.32764654009284    1.52325596803597    0.42984698785168
H          -0.74804392630094    1.38456500837402    2.06179742187316
