    26
        -50.46214912  Gyration_radius:  2.46074261708 Dipole_moment: 6.823
 S           1.99549190192220    0.03909620329274   -0.41933909454773
O           1.40230254643732    1.34451052286555   -0.14904895690042
O           2.06472068041608   -0.73882214132266    0.82010553056150
O           1.35346586503336   -0.65614892346220   -1.50043652955693
O           3.49203566459131    0.29712800804420   -0.85138508418369
H           3.85266275457442    0.67427257762613   -0.05690353100844
O          -1.95143380647572   -1.12873305528949    0.65745255920293
H          -2.82085209293822   -1.51726056236302    0.75831515175041
O          -1.03739501219057   -0.18352912623359   -2.99757946143710
H          -0.07778568752206   -0.22413629995032   -2.89360898209418
H          -1.32468205578101    0.50441429375890   -2.37471187143958
O          -0.16025211660874    2.38858767900193    1.74250793339612
H           0.58310213979441    2.27642939384226    1.11849626377768
H          -0.92705380356709    2.49252327284605    1.16218072080004
O          -1.27868164894750    1.29479458742519   -0.63544700544844
H          -0.30453678222335    1.28222909659937   -0.60603903338815
H          -1.58385875671348    0.48537410568160   -0.19901631324263
O          -0.78497217368565   -2.27342255319968   -1.31351913533515
H           0.13721279268720   -1.96239966363408   -1.26976028540585
H          -1.49799315481850   -1.64437907073406   -0.08954374656992
H          -1.13850356742527   -1.75425513907110   -2.06672648389422
N          -0.00726223289690   -0.20643747317407    2.25961210031655
H           0.88055029095534   -0.46314798401761    1.70762837311656
H          -0.11734089379474    0.84939025601489    2.20018365088257
H          -0.81550402003527   -0.65441769752978    1.77584997867811
H           0.06656316920110   -0.52166030702435    3.22073324198389
