    26
        -50.46843421  Gyration_radius:  2.53552127758 Dipole_moment: 4.827
 S           0.63183902162042    0.14988861178888    0.66073690473720
O           1.82372554646712    0.76200809030856    0.11128028174004
O           0.73649169477988   -1.30846181981385    0.68410385410606
O           0.44091103317859    0.66901039985436    2.08852775665042
O          -0.55926638320029    0.55524032803380   -0.11929795353985
O           2.06738995843793   -1.58359818223496   -1.54020651481436
H           2.84028552477417   -1.04185229650459   -1.35617467728043
H           1.60088107703590   -1.64317980448144   -0.67220444825856
O          -1.42724462397983   -2.56961035532043    1.48832507895294
H          -1.12184634052027   -3.34404950002773    1.96385564977260
H          -0.62324882770328   -2.15237946661295    1.10638435674394
O          -2.80476166751725    1.38785538515884    1.06318554000139
H          -2.61673724238366    2.29478022025773    1.31063925314175
H          -2.03838538390103    1.08335492846502    0.53548637295071
O           1.92928252440556    2.19760774905950   -2.08449597550762
H           1.72894920690869    3.10926764169802   -1.86839742760180
H           2.01049068141873    1.72682283733460   -1.22010574302831
H           0.87499633357041    1.00441967274031   -2.65188626781068
O          -1.75304135222009   -0.30535434761327    2.87628748156927
H          -2.36220816130513    0.25597465008742    2.35345038106562
H          -1.78227385579327   -1.19106047596325    2.45065568316746
H          -0.42605853434823    0.26149060022344    2.47106202817131
N           0.31944005138824    0.13145396948105   -2.50285866058690
H           1.01235219168988   -0.65008488956036   -2.29749363125539
H          -0.30349554112167   -0.08494780682371   -3.27302990033518
H          -0.19846693165297    0.28540384043839   -1.57782941273473
