    26
        -50.47250295  Gyration_radius:  2.48721881033 Dipole_moment: 2.877
 S           1.98849729930342   -1.03958597995062   -0.32956765467827
O           1.82115105759006   -0.95354381200801   -1.76778404131911
O           2.53842743487395    0.18822417842538    0.23181573212756
O           0.78983748113402   -1.46530835410581    0.36726499431808
O           3.06884733225091   -2.17093769723889   -0.07922268100613
H           3.75305438685771   -1.90685491577335   -0.68464462285429
O          -2.66927326517133    0.02665517834176    0.68140694011458
H          -3.60396171732038   -0.17301172709549    0.73531536679101
O          -1.11858922195738    2.05233644697075   -0.35767521433554
H          -1.81218467832122    1.47058733696085    0.00224394928186
H          -0.79154038073512    1.59828226918163   -1.15727730314319
O          -0.18592338796296    0.53502152477350   -2.43095756433649
H           0.61033058637947   -0.00658749701224   -2.18856541793025
H          -0.02570886337439    0.85610975393072   -3.31955544865440
O          -0.62499163889476   -0.49939899453296    2.45322294256739
H          -0.11278642786171   -1.07615386277512    1.85663460622621
H          -1.47267009851624   -0.35675820163515    1.99357307955762
O          -1.47471856103315   -1.51014171074113   -1.04955331643787
H          -2.28096940679689   -0.61303124684472    0.01627844848460
H          -1.22204746922313   -0.90151473347005   -1.75925134907347
H          -0.64286030876351   -1.67323690724947   -0.56111107540359
N           0.70388394887133    1.55108031135967    1.48604970996782
H           0.19071491468328    0.81058573835760    2.05337359464531
H           1.50419431143340    1.05366878677309    0.99808733384475
H           0.02379622228074    1.89385858640189    0.74534991444428
H           1.04549045192979    2.30965555914896    2.06454905699456
