    26
        -50.46361287  Gyration_radius:  2.49251020858 Dipole_moment: 6.647
 S           0.77642131825457   -2.22067854747154   -0.07139663694388
O           1.41202628566329   -2.04732888556970   -1.35587138124971
O           1.63827348263938   -1.80715387671717    1.03722173611074
O          -0.53541774473765   -1.60405833888312    0.03342021416752
O           0.54655657454566   -3.78105976002962    0.09890033501589
H           1.31749644066272   -4.12602121519382   -0.33883600576988
O           0.95739161616164    2.07941166092019   -0.25744634651358
H           1.57739756053658    2.75882333119116   -0.52480463699411
O          -1.71684209775232   -0.10053133679039   -1.87722437910035
H          -1.97564437378795    0.63114810033438   -1.29940475157714
H          -1.40737296018851   -0.80240630551500   -1.27651171843271
O          -1.77453116904181    2.07911880676905   -0.05394123442002
H          -2.15978434342075    2.90390946708710   -0.35174604048747
H          -0.80452829742457    2.16621017416955   -0.13860060898650
O          -1.69397144139176    0.00699232820794    1.81565563145794
H          -2.00297472307566    0.71889028023063    1.23520455789412
H          -1.47203550118659   -0.73632140829039    1.21840250555938
O           0.88975958310924    0.41611665181683   -2.17371909377662
H           1.21190462944154   -0.48023349921213   -1.94059035051783
H          -0.07590620265154    0.28559017600138   -2.31111221384040
H           0.96516402443702    1.39278605449556   -1.02044388403679
N           0.88046809829393    0.47592081395594    1.93393290581158
H           1.24795204945952   -0.48249997003736    1.60389976827406
H           1.03854500238836    1.16031740038398    1.16735661567318
H          -0.17420456886317    0.35172782505776    2.05341281543549
H           1.33385676792941    0.76133007308828    2.79424221724736
