    26
        -50.45920791  Gyration_radius:  2.51517823806 Dipole_moment: 7.227
 S          -0.55474028565786    1.99207155085976    0.28550852585540
O          -1.54364207438268    2.33895547622504   -0.69033076288515
O          -0.90617527258359    0.87672372374068    1.15797870417409
O           0.79840131446790    1.81411224762642   -0.24810459224559
O          -0.43490301648159    3.25043138166714    1.26731990343408
H          -0.97832728510429    3.91270831819749    0.85188576176900
O           0.20890075661984   -2.42449014003280   -0.43704635050159
H           0.08912897661155   -3.16381824509989   -1.03505114159519
O          -2.30638334352498   -1.25308962206799    0.15639159248681
H          -1.53701388425784   -1.83703676091389    0.08821907201348
H          -1.98309662765504   -0.46878400362985    0.62651378872239
O           2.44099902904311   -1.94826575203522    0.87593935551660
H           3.05826987211293   -1.84020990116660    0.14908018504654
H           1.59586473426780   -2.26237646615895    0.46627935911890
O          -2.09347428800461    0.11134786317029   -2.19439679177185
H          -2.39524060972746   -0.46184640303360   -1.46105921617094
H          -2.06934973052783    1.00492980005860   -1.81748178714372
O           0.48759836328178   -0.32188978963270   -1.91076421577044
H          -0.44772351412116   -0.19182742552085   -2.21536429707684
H           0.69771791880330    0.48839913638708   -1.41891320210935
H           0.31875359889603   -1.61134920391519   -1.02267878952797
N           1.54438005299362    0.38861884429378    1.73985904007397
H           1.97863392174446    0.77262599236322    2.57207544453398
H           1.59070073562778    1.04746005554200    0.91208914578541
H           1.94585519612377   -0.56017850841263    1.47841674540843
H           0.49486545143086    0.34677782148463    1.82363451284475
