    26
        -50.46804953  Gyration_radius:  2.48237471767 Dipole_moment: 3.273
 S           0.46038558831130   -1.96851249361618    1.02614154834833
O           1.32195496542177   -1.19897384533243    1.92078179489637
O          -0.82435018105382   -1.28628055272688    0.84708672957066
O           1.07208101483130   -2.32906838018997   -0.22110117785435
O           0.14374395672281   -3.30958450704138    1.80824488742022
H           0.07555455131501   -2.98704017935387    2.70024639532526
O           1.30932973022971    1.71694029949986   -1.24212107447285
H           1.98758675201407    2.15670260211452   -1.75558553204938
O          -1.53250065442375    1.86014614731473   -1.09608764587138
H          -1.72390358965986    0.96621405579738   -1.42407436687808
H          -0.58716806801201    1.99546957656937   -1.25226719624805
O          -1.54080208652363    1.23596020575146    1.49390113871284
H          -1.49940718480221    0.26799959795514    1.37848056457087
H          -1.72896536320118    1.58711697181094    0.59093170322772
O          -1.68516060566273   -0.85846440791202   -1.59466706879928
H          -2.37061743826169   -1.49735754916578   -1.79256033476353
H          -1.36308357079083   -1.07032175270112   -0.68448195524840
O           0.96931111866993   -0.63010345306961   -2.24733384133669
H           1.17448733529873   -1.30597743446388   -1.56815961984234
H           0.00601539086024   -0.69839313948904   -2.34842662410784
H           1.21354083060452    0.79640110706257   -1.64458661809765
N           1.04920024768762    1.33402293086483    1.42843663351298
H           1.25592171220671    0.31098925646933    1.64228684502812
H           1.27313093350643    1.53156395356553    0.43063194693610
H          -0.02068597408470    1.43425703138915    1.55363976362130
H           1.56440057879629    1.94629399889722    2.05064310439905
