    26
        -50.46603990  Gyration_radius:  2.42528461617 Dipole_moment: 5.945
 S          -0.46337738819728   -1.94177653903691   -0.47162736310274
O          -1.28519522733700   -1.81827204984817   -1.64384998760356
O           0.91782743131923   -1.48466373132135   -0.67286583137962
O          -1.00274091243685   -1.31656319828285    0.72230040903727
O          -0.36746723546773   -3.49412756814331   -0.16636179042835
H          -0.71183537071325   -3.84472614105529   -0.98021841338041
O           1.18752744259906    2.21812299365808   -0.08340527276011
H           1.50275410128581    3.09533699212033   -0.30104486799053
O          -1.42278965738475    1.35718851896945    0.64505502464929
H          -0.56544532489529    1.74092115089987    0.40880710633872
H          -1.32713754949812    0.38802902681484    0.60928427178926
O          -1.77859081114643    0.80338664384365   -2.11397362097442
H          -1.97591202767145    1.14478827210315   -1.22809356404454
H          -1.79328421443820   -0.16742660601342   -2.04254137114587
O          -0.39791935088025   -0.02188881344843    2.96908517714440
H          -0.90419263535488    0.76023255323160    2.70819537064305
H          -0.79351853903249   -0.74160734639955    2.44660179111718
O           0.87570907748564    0.78397515648820   -2.18068606050463
H           0.97254613045738   -0.11846187711443   -1.83112102586387
H          -0.09020715454691    0.88444485490893   -2.36065050142169
H           1.10374827506122    1.71750096322796   -0.96200751750533
N           1.68750817122572    0.00930502341615    1.32238134871581
H           0.93679503164617   -0.01043962034823    2.07580657436531
H           1.41007132413811   -0.67642450251152    0.55154955972282
H           1.68439548533301    0.95719448030238    0.88273204629463
H           2.60073089845786   -0.22404862646186    1.69664850829927
