    26
        -50.46361292  Gyration_radius:  2.49256296377 Dipole_moment: 6.641
 S           0.51930405604928   -2.29518226573621    0.04463222060684
O           0.74146342066474   -2.35918634712466   -1.38030790256801
O           1.71299237854049   -1.86764286420543    0.77612316974661
O          -0.63743873304105   -1.50598896091251    0.43344952381467
O           0.21792187104150   -3.78151030532988    0.50995602540078
H           0.78230064854993   -4.27183727172670   -0.07813466185621
O           1.01027028620142    1.89149656613974   -0.84057103142539
H           1.57605568172524    2.44722119515751   -1.37773692912428
O          -2.21332956317931   -0.09955553328448   -1.25323079199707
H          -1.79653444424933   -0.75927343444205   -0.66986994066314
H          -2.21595875969896    0.72300226561441   -0.74365830355488
O          -1.51559102495246    2.27092909663902    0.15063848317897
H          -1.90121918733589    3.09545902337077   -0.14735749683188
H          -0.61494718942517    2.22057560761303   -0.22603830938415
O          -1.04543821511468    0.44249537544150    2.20880390195694
H          -1.45502513065360    1.11421316273894    1.64303266990003
H          -1.08376898629965   -0.38901583658748    1.69344209948051
O           0.20947651029108    0.03566389658989   -2.37623155014419
H           0.50825531458967   -0.86059529835756   -2.11344338488836
H          -0.75902045956039    0.01598074419890   -2.20286558820416
H           0.72210087875545    1.12414439372017   -1.45845327047488
N           1.47114243676003    0.58475702516558    1.49579202570628
H           1.63387950226615   -0.44566094364077    1.22320669373136
H           1.44462439589642    1.14646437523740    0.62119669236836
H           0.49790172974807    0.61348553509926    1.93618605029707
H           2.19058258243096    0.90956079862153    2.13143963492825
