    26
        -50.46254376  Gyration_radius:  2.4915396087 Dipole_moment: 7.197
 S          -0.10413907558418   -2.36630753371070   -0.16620738077871
O           0.74141764849955   -2.46535959514740    1.02695937629396
O          -1.16092346131439   -1.37824957957908    0.05504068641658
O           0.63638664295734   -2.14951206018564   -1.37567961301334
O          -0.82808541393661   -3.76774498171125   -0.29414713290578
H          -1.21555678090426   -3.86574312553439    0.56926308921878
O           1.67365706229874    1.55993711322475   -0.38094502650705
H           2.49415193364817    1.96946493891561   -0.65730165680713
O          -1.75850287939805    0.59271820245416   -1.69219861031382
H          -1.67399653728344   -0.21106126917563   -1.14608578449166
H          -1.67176162691441    1.33267224104318   -1.07462895134024
O          -0.82131512683505    2.56532268719826    0.12539045558743
H           0.10075168942703    2.29564994803719   -0.05631506162710
H          -0.91184447657202    3.47325732586104   -0.16587456030647
O          -1.33900089236124    0.50370976319861    1.92626607575176
H          -1.42133077834590    1.31558693558905    1.40425514909012
H          -1.47255856534567   -0.23179567667676    1.29016821727631
O           0.79672034702913    0.28878832730764   -2.38590667418208
H           0.85019575033959   -0.66037627547385   -2.14814648221157
H          -0.17092383066204    0.47317899863262   -2.36851080916597
H           1.34443962125378    1.03143135622723   -1.20357966252300
N           1.21185657257857   -0.04840681161739    1.75845327309033
H           1.11224249294542   -1.07865433387468    1.46101667208734
H           1.53307456259183    0.52418057777615    0.94994787747629
H           0.21542042831178    0.25713853317775    1.99914864824295
H           1.83962469356664    0.04017428406047    2.54961788564625
