    26
        -50.46843461  Gyration_radius:  2.53670980298 Dipole_moment: 4.839
 S          -0.61145845524705   -0.08522695662393    0.68973636332402
O           0.57477998252139   -0.07067276016874    1.54449958978278
O          -1.49387995093253   -1.27905473379909    1.06485479707220
O          -1.39479553147283    1.12319888171996    0.84238938672662
O          -0.20939888694042   -0.26028285207350   -0.72423176475104
O          -0.44928848583328   -2.59963954764766   -1.99023520682863
H          -1.37718119548179   -2.64422844855296   -2.22699875122517
H          -0.30513903987417   -1.70749210676319   -1.61357486932718
O           2.19029409168597   -2.12664981219288    1.25618314580061
H           2.54936483578272   -2.30594157078043    2.12687780982700
H           1.66412229556457   -1.30109235306625    1.34537103705026
O           1.09665716458655    2.47592449877966    1.34703815685476
H           0.27250210151622    2.85469398129988    1.66635275291141
H           1.01418260244036    1.51253024065339    1.54588773460181
O          -1.86511159083467    2.89299237413502   -1.03895988196083
H          -2.63863579665400    2.62026715488618   -1.53425570965648
H          -1.80835157496127    2.27874875411740   -0.26763959292519
H          -0.23946497654931    2.60674766492442   -1.40250979579199
O          -0.10136253798553   -3.33086563313501    0.58002191856285
H          -0.95074204446822   -2.14426983566920    0.92250193813379
H          -0.14397659962234   -3.31618422072384   -0.39848225280659
H           0.81346079844567   -3.05130425736024    0.80670346995747
N           0.66312899171106    2.11087295196362   -1.22270041143246
H           0.98431350572033    2.38726935794568   -0.24634965491993
H           1.36508605791733    2.28420646683238   -1.93350310416087
H           0.40089423900031    1.07545274133729   -1.13897713483257
