    26
        -50.46254375  Gyration_radius:  2.49152952907 Dipole_moment: 7.195
 S          -0.39149721028131   -2.22967383433450    0.71616493769570
O           0.83749250605456   -2.16667090041002    1.51242317014648
O          -1.17681017533979   -1.01129110720914    0.91824366991571
O          -0.16237424568896   -2.53890343974696   -0.66589862098944
O          -1.24157971962498   -3.41212327782225    1.33555552474755
H          -1.27059918979302   -3.16958612328533    2.25509516080596
O           1.53737544401344    0.97325797076010   -1.43830695463053
H           2.22153152627848    1.09357919245248   -2.09766618409302
O          -2.21127396182312    0.45589687099348   -1.09966071927856
H          -1.81901858183022    1.30360268875302   -0.84668840771839
H          -1.99993244684890   -0.15500227763219   -0.36919164782910
O          -0.45249198376522    2.60858520999438   -0.51177197703541
H           0.29498794662549    2.10076477236373   -0.88503130736390
H          -0.56011723633727    3.39087645806985   -1.05383694854447
O          -0.42744746996791    1.31950411988269    1.95791722684866
H          -0.62660791385410    1.94436176702805    1.24497366941413
H          -0.86933365029756    0.48098251840916    1.70286503658625
O          -0.17063086106958   -0.59269089244132   -2.45577263813056
H          -1.03211123896445   -0.20147270905762   -2.18111204414287
H           0.86391442189872    0.31751282592947   -1.86360340567704
H          -0.12187314305481   -1.42069813329750   -1.93391692316139
N           1.78962966485250    0.19140960594116    1.15052505055497
H           1.48182386526638   -0.83199164843662    1.28357579266178
H           1.82517754341765    0.42147886386645    0.13536956648431
H           1.00054345941835    0.76613968235151    1.58779222945526
H           2.68122263071507    0.36215180687621    1.60195674327433
