    26
        -50.46157869  Gyration_radius:  2.49816334433 Dipole_moment: 6.116
 S           2.16196657946865    0.35629434204595   -0.60586025898935
O           1.28529564819930    1.52093458893624   -0.60582466330293
O           1.77940245285776   -0.56506671009633    0.46110362316267
O           2.26981447747164   -0.28837281457031   -1.88806894092750
O           3.60622189198245    0.88068321535603   -0.22638884726310
H           3.47874672437022    1.24038252859452    0.64616268918770
O          -2.34963840406304    0.51467047037841   -0.26755601685672
H          -3.23909716112456    0.39992848559008   -0.60298111349920
O           0.13029628546362   -1.78504101715794   -1.95553707824651
H           0.21309383818251   -2.35826387736509   -2.72005600166266
H           0.99658619544010   -1.31950889071263   -1.88797325601645
O          -0.40178226317384    1.68759225025527    1.47671024276074
H           0.29541662952171    1.67775994237234    0.79137685062334
H          -1.22600847693479    1.59448829887109    0.98297116047887
O          -0.79920940184856   -0.27324257026831    3.24855050764674
H          -0.51491141494071    0.51248927983269    2.72448828665685
H          -1.49872803787625    0.03146334924699    3.82762773688773
O          -0.71966664438633    0.84841388806879   -2.23320619233848
H           0.05246383980510    1.24152708656308   -1.77874884013744
H          -0.48205478446274   -0.08439163498134   -2.36923278640992
H          -1.77789495949939    0.74254544640800   -1.06400051452456
N          -0.67160779437477   -1.33844055988704    0.80646127722334
H          -0.80220509560796   -1.22970756168790    1.83395705864817
H          -0.77623082643916   -2.29043341764329    0.47301196124398
H          -1.34228373460036   -0.69861252766235    0.32539668983925
H           0.33201444657573   -1.01809159052004    0.60761644577165
