    26
        -50.46157868  Gyration_radius:  2.49818061802 Dipole_moment: 6.118
 S          -1.04782341932583   -2.01763552580200   -0.00223628693524
O          -0.03231835989624   -1.65284440464981    0.98232998127351
O          -1.86615258178601   -0.85861540784703   -0.33683352029303
O          -0.49695858363720   -2.68939278472808   -1.14967620552407
O          -2.00387263720337   -3.04811328060343    0.72502525752625
H          -2.28660130944081   -2.56687954461755    1.49668540885283
O           0.26849550890879    2.20838360025727   -0.95290522510596
H           0.65791667437341    2.87948150601583   -1.51398634914818
O           1.60983025951951   -1.24614925279619   -1.69781040235916
H           0.89045298077003   -1.86311788654080   -1.42665192028198
H           2.11111221574973   -1.72272006356633   -2.36229007515630
O          -1.43899862659270    1.32206861127254    1.17090550565876
H          -1.09328825402757    1.89460358973916    0.47482336800341
H          -1.66826134096044    0.49032044370047    0.71098944229521
O           0.57739374054990    1.57728797010819    2.90602837534276
H          -0.26769863131309    1.41578580494396    2.42373341410521
H           0.52670224959944    2.47368057304928    3.23979711311130
O          -0.61149405399033    0.27097559192013   -2.40341184585562
H           0.19147844926504   -0.27693913345706   -2.39547132762115
H          -1.22475210134289   -0.17163171945354   -1.78276768400711
H          -0.14697667949250    1.53272430761597   -1.57259913120509
N           1.49876594019766    0.41923107670667    0.68688524556555
H           1.10173987821625    1.08746142409633   -0.01053390212329
H           2.42726657291207    0.11773741085662    0.41226114669975
H           1.45665894679920    0.86905741909780    1.62529988091231
H           0.86738315211074   -0.44476030539278    0.75240972621234
