    26
        -50.45476261  Gyration_radius:  2.60459424319 Dipole_moment: 5.776
 S          -2.11014598985648    1.31608449684906   -0.85888954133234
O          -2.27645122222544    0.05396485209705   -1.59661385676157
O          -2.58658297171345    1.20771727060344    0.50435493183309
O          -0.75661455410947    1.79984636552980   -0.98853661508441
O          -3.06218359239462    2.37030668671612   -1.57032699351761
H          -3.90556383179228    2.17055148571263   -1.17612311607468
O          -0.20565430041651   -2.04516607857967    1.06573210375961
H          -0.92847516189016   -2.61545155216683    1.32889685211638
O           2.53439628474145   -0.17971053791270   -0.94978655008992
H           2.60295182001785   -0.65246895103629   -0.08382446856782
H           3.42731107531577   -0.03658849087947   -1.26345088024102
O           1.24763212662422    1.72776394938651    0.73600158950041
H           0.51508180866559    1.99314527837104    0.14594432014588
H           1.84309588125560    1.24266247517865    0.14879927799264
O           2.40475791119371   -1.22664288665982    1.48226100245999
H           2.22081116506226   -0.44482053490024    2.01226419680835
H           1.57440134610515   -1.72836999838444    1.45699451358328
O          -0.62269520008276    0.27573525137478    2.00567847630810
H          -1.42322854037394    0.63502743422371    1.56311049024973
H          -0.40862259349251   -1.13161752006507    1.48135090544303
H           0.10716577583904    0.85472751068830    1.69428948860012
N          -0.02289186072634   -1.12304353285641   -1.44286556031346
H           0.08507705477802   -1.81296546751679   -2.17946338498825
H          -0.07983773200885   -1.58818511684408   -0.50010271934021
H           0.78691789675211   -0.48658318280545   -1.43974639673020
H          -0.96065257533666   -0.57591921608500   -1.57594804572487
