    26
        -50.45476215  Gyration_radius:  2.6044958345 Dipole_moment: 5.771
 S          -2.50872835678800   -0.41947294844577   -0.67262803141235
O          -2.16084271838569   -1.74309032470266   -0.13269475323149
O          -2.82527418733306    0.52365948135610    0.37992742891910
O          -1.49672599559264    0.02738840391859   -1.59947092766819
O          -3.85309234186439   -0.61879733265933   -1.49541814638683
H          -4.51174464419381   -0.57134976128140   -0.80949380524192
O           0.73269289110143   -0.30352202658645    2.17669485850116
H           0.33235141747169   -0.55545888516479    3.00927475138532
O           2.76691255163192    1.03697038806061    0.86282070928943
H           2.29454804826127    1.85445592718400    0.67685607641658
H           2.22833371748741    0.56550827856066    1.51809792230456
O           2.32083404981143   -0.33192588378360   -1.36306445903322
H           3.05370383345886   -0.32207500771987   -1.97863648405453
H           2.62549544509856    0.12550219556271   -0.54087543109134
O           0.43419212226910    1.80621204968690   -1.27871468961631
H          -0.37047409633959    1.31925445094120   -1.54458637922387
H           1.14869170022983    1.19136815498486   -1.49341770383405
O          -0.57812963583961    1.64092282970461    1.20437494545730
H          -0.17878533642915    1.86057865344755    0.33421566017367
H          -1.47689705565980    1.31093166930887    0.98245487978107
H           0.18381261476791    0.49037878768441    1.83488418202272
N           0.38344360444418   -1.78970710379376   -0.02461088484318
H           0.57545549376728   -1.29413140816261    0.88416796199507
H           0.84873329418499   -1.26760944390258   -0.78091252002088
H           0.73449415468543   -2.74166948335816    0.00245081777509
H          -0.70300060024015   -1.79432166083615   -0.15169597836276
