    26
        -50.46254374  Gyration_radius:  2.49156634474 Dipole_moment: 7.196
 S           0.21876642758608    2.25182643267144   -0.72112620745340
O           1.21812928700139    1.81716158160772   -1.70127151247144
O          -0.93169723533624    1.34761328643781   -0.75099271990524
O           0.75585845680111    2.44964840446096    0.59434466566689
O          -0.30561908175911    3.65245284003646   -1.23846809785829
H          -0.56051206645771    3.44672975741337   -2.13177963484430
O           1.36648531849070   -1.43439441743029    1.20565347255443
H           2.07637473295278   -1.77575355652904    1.75048585941156
O          -1.15992132044478   -2.34108103275321    0.66898955444766
H          -0.24026558185395   -2.10202005109030    0.89915803282867
H          -1.41851432146290   -3.05779719901703    1.24940879100434
O          -1.13503254594122   -1.08149481645069   -1.81588127383289
H          -1.24253878065399   -0.15107825001316   -1.52238372127483
H          -1.40115636368013   -1.62428385826087   -1.05893493593996
O          -2.03171330200004    0.24622824345557    1.45586618121994
H          -1.97271424625551   -0.67731586111889    1.17290639630676
H          -1.76101889537278    0.77202914678121    0.68012671196211
O           0.42827411826439    0.57315437365635    2.42820706105064
H          -0.54517820075748    0.47899005535928    2.30985292089817
H           1.01245553048864   -0.60697471369697    1.71002636938605
H           0.64881749903788    1.35261947644312    1.87673464681732
N           1.42507061305981   -0.72711552186528   -1.41607643213082
H           0.43477839006464   -1.01481401807948   -1.70022574883686
H           2.13104409242148   -1.16292081094371   -1.99878637327118
H           1.43771195694345    0.34337537904054   -1.53337935834770
H           1.55211552885453   -0.97478488004469   -0.41245463748708
