    26
        -50.46199231  Gyration_radius:  2.60939971399 Dipole_moment: 1.378
 S           1.37117143781531   -1.31262275308830    0.88363462003807
O           0.35251094893707   -1.73785894208515   -0.05201188779776
O           2.71737172456061   -1.57961716108322    0.43604628150265
O           1.15956310381234    0.07626642274835    1.29474900065991
O           1.18176786616130   -2.17829365236000    2.21798872625816
H           2.02246444631880   -2.61518845049196    2.31782146963029
O          -2.10250777994387    0.86801266783039   -1.32249663208275
H          -2.53973441611401    0.48425333215655   -2.08372239969126
O          -0.84048154974722    3.44325373696098   -1.17987386270049
H          -1.51189148515484    2.74719939909712   -1.21426326897494
H          -1.16647905731155    4.10834782147241   -0.57268490165105
O          -1.01062698089076   -0.26945103524566    2.82327947431623
H          -0.19700285527310   -0.01370580323583    2.34943792378825
H          -0.78876278942754   -1.08205773579493    3.28299675984431
O           2.12910192551537   -0.85007003921142   -2.04850885700877
H           2.54849640695073   -1.10244380252980   -1.19878582302173
H           1.48999972397286   -1.55091776747676   -2.20787867133304
O          -2.15310593650223   -0.97851920344780    0.47322026419663
H          -1.30390887792732   -1.40110039039151    0.23264508426950
H          -2.00041230138092   -0.64725106802760    1.37982816101775
H          -2.22284185984118    0.19938026079745   -0.57822635980553
N           0.58361526460480    1.09261700202392   -1.06256206449505
H           1.21641022657359    0.47811395945361   -1.63301901475836
H           0.70731938180773    2.09512778580392   -1.22401016148249
H          -0.42486013802308    0.88204298747290   -1.25382344092609
H           0.78282358049563    0.84448242866234   -0.05978042980721
