    26
        -50.45207188  Gyration_radius:  2.56087334909 Dipole_moment: 5.260
 S           1.94501851387465   -1.07547902953503    0.75631423663829
O           2.28651135258650   -1.41632396299781   -0.62887711225667
O           2.31177028048628    0.27235946019514    1.10807071205857
O           0.56207053126474   -1.41649310681181    1.04877763042597
O           2.82213629910642   -2.03625985892889    1.67083558928893
H           3.68757710442975   -1.63803650574442    1.65336127980594
O          -0.72621478776681    0.73834129934659   -2.16102801526951
H          -0.55850651021505    1.17028944505171   -2.99928970119127
O          -2.81423642470192   -0.07376601833461   -0.54092463474370
H          -3.51769981303609    0.56662170568727   -0.42218188498563
H          -2.16233755027838    0.34135483670699   -1.12920312047828
O          -1.50722074164655    0.09214002604410    1.91392939072182
H          -2.06441244304956   -0.08172803247296    1.13650826185746
H          -0.71338196518349   -0.45447378785191    1.78339577425245
O          -0.67886205908299    2.58977502706000    1.55806098908244
H          -1.04799019651559    1.69261928342310    1.75257987259455
H          -0.06946755896589    2.77769100200873    2.27353729975378
O           0.85077843351122    1.83925623509150   -0.49489149894225
H          -0.09392887985230    1.18245703926995   -1.49501733073074
H           0.27301762307492    2.24648911120975    0.19345474571564
H           1.47233880004589    1.28122148774424    0.01202114531838
N          -0.08265055675804   -1.74485405433389   -1.43696666936357
H          -0.42350132650170   -2.55867950881821   -1.93594266702692
H          -0.33099516688726   -1.75798764234737   -0.42745062275516
H           0.99385283495209   -1.69544072427595   -1.33222351225722
H          -0.41366579288748   -0.84109374641026   -1.85685015753203
