    26
        -50.47071379  Gyration_radius:  2.41585820465 Dipole_moment: 4.143
 S           1.16279659047604   -1.01229680007218    1.31674101251881
O           1.34409218675781   -1.72179502695774    0.06131349870121
O           1.72084759601487    0.34027486870015    1.25329726340645
O          -0.19466658710335   -1.01252443742708    1.80617306129856
O           2.02384177954259   -1.79700777225037    2.38900520103908
H           2.83327583284883   -1.96271483059632    1.91804181060644
O          -0.05756241641137    1.09749072450905   -2.27662666752629
H           0.08092143526738    1.59841116707582   -3.08113630867429
O          -0.34225065212664    1.70820630585831    2.06680448559493
H           0.53113969642418    1.34338808955664    1.79280432198825
H          -0.71795949152061    0.99018509004336    2.58876580688324
O          -0.69341238944504   -1.65290341519439   -1.70953826558723
H          -0.51557323905833   -0.79597176063721   -2.11945426292051
H           0.05335965556709   -1.82005968141152   -1.10293271921575
O          -2.35705848649823   -1.04497592408439    0.25129795940529
H          -1.69290764355713   -1.18788228535169    0.95576669675122
H          -1.93771425424069   -1.44578343614806   -0.54687885282986
O           2.24557109819520    0.38804073675725   -1.30663647312185
H           2.19830634951109    0.63810899958079   -0.36174665434179
H           2.13953387488841   -0.57420693455914   -1.25656278965034
H           0.85539556399692    0.88069588564033   -1.92414957106136
N          -1.74708196318216    1.43606501406331   -0.15572141208615
H          -2.11957767824977    0.42086804280442   -0.00724882983856
H          -1.18156675054971    1.66595824776307    0.71644192969579
H          -1.12447419923461    1.42563817622052   -0.98641547090747
H          -2.50727589823360    2.09479096591551   -0.28140476039697
