    26
        -50.47071344  Gyration_radius:  2.41588135801 Dipole_moment: 4.156
 S           0.87103930919542   -1.78592822474931   -0.40452275493538
O           1.15138167239556   -1.52422655657684    1.00863129156918
O          -0.54611014632632   -2.01581925523191   -0.63266782358039
O           1.45310261565629   -0.78358286207123   -1.26403734593965
O           1.59556657366185   -3.14941922226989   -0.75494198618861
H           1.03404190518370   -3.79210472334644   -0.33521933877836
O          -1.85989060922118    1.14157810409029    1.27730148515215
H          -2.50079595205331    1.47226094690223    1.90753135030192
O          -2.04508024101676    0.09649427730748   -1.39911502113895
H          -2.20895741658597    0.49240711035205   -0.53283214570397
H          -1.57735192128949   -0.74289382689392   -1.22573730201890
O           2.48755322743795    0.70191378245958    0.78993917906788
H           2.04941663426207   -0.14455896076417    1.04004869927580
H           2.81600653367040    0.51710939026865   -0.09717144512354
O           0.14331231458764    1.33031649378894   -2.21802673845750
H           0.71871099262933    0.54897853155031   -2.09064319909238
H          -0.76875943086208    0.95943791506341   -2.15332559791788
O          -1.32536398819127   -1.34049862873456    1.82609456106270
H          -1.66131566251061    0.19832415248700    1.55252274056256
H          -1.52728306851629   -1.76376714341849    0.97702120692305
H          -0.34848484029364   -1.38544153223964    1.83598863048296
N           0.40629405098569    2.22018076055356    0.19687253132839
H           1.25621722684217    1.67674498838601    0.53662905820101
H          -0.44343926707585    1.89410521638489    0.69630156201505
H           0.53827144465821    3.21762696909157    0.32061221871039
H           0.29191804316144    1.96076230796814   -0.85725380557505
