    26
        -50.46627039  Gyration_radius:  2.44605228529 Dipole_moment: 6.895
 S          -0.54282937508728   -1.91218176033191   -0.10589813821662
O          -1.97552605210597   -1.97170500896683   -0.14751562597325
O           0.08473394548442   -1.34981907705953   -1.29358624890477
O          -0.01368375537743   -1.25074483975777    1.09148139460340
O          -0.04738335002792   -3.41693042962974   -0.01634014496629
H          -0.88538549588821   -3.86286140855826    0.03344349969228
O           0.48960389027278    2.42879078695901    0.45616826810967
H           0.55143854995809    3.35844961662375    0.23591600857215
O          -2.95468205961106    0.57239603095122   -0.06601305562532
H          -2.63689586828676    0.80305428028688    0.82722169415340
H          -2.82292231006732   -0.38797983876102   -0.13668462428297
O          -1.33142837382768    0.93716044675592    2.11094841428889
H          -0.93224712358884    0.07764480625827    1.90138896282827
H          -0.74208616957209    1.60243043218865    1.73198675888455
O           2.54066879329490   -0.57721909743768   -1.73984131213872
H           2.47356277957630    0.00174421915157   -2.50207049116119
H           1.66392137737287   -1.02372790007469   -1.67152931377866
O          -0.78021689916548    1.20221669050531   -1.40640967200147
H          -1.69461291073544    1.10315415891918   -1.03452121845561
H          -0.02769203248975    1.99369434474121   -0.29954021123764
H          -0.46239516129428    0.28596766264230   -1.49223478056624
N           2.03953707660697    0.28773257423087    0.71834049248709
H           1.59845317473088    1.23762908433724    0.68056426734547
H           2.41253819066127    0.02905301528448   -0.23276579109410
H           2.75323656444305    0.23089739821485    1.43627635422930
H           1.24229262459441   -0.39884616756494    0.92121450320270
