    26
        -50.46245838  Gyration_radius:  2.53083224269 Dipole_moment: 4.456
 S           0.42266683431207   -2.16132127473451   -0.44925712070289
O           1.57714124391660   -2.62067946019446   -1.18921948574824
O           0.81300866983543   -1.42730027472029    0.76343069490594
O          -0.51358718650967   -1.39408526680889   -1.23765006881767
O          -0.34964824088274   -3.45034730481120    0.05411687394671
H           0.33908937360523   -4.02889885741519    0.36868477986696
O          -1.11657763489303    2.18154077505404   -0.47627148373854
H          -1.47720881549752    2.53008716249106   -1.29184519689517
O           1.73285569824455   -0.43134549993049   -2.62211690638531
H           0.85850576625817   -0.49909975965998   -3.01794893634748
H           1.85612259048565   -1.30536451419465   -2.18366100905808
O           0.06636999453660    2.41839044375504    2.01538394242468
H          -0.45475175586875    2.53475160870324    1.20547607316768
H          -0.33454255023703    2.97783413810255    2.68211922666124
O          -0.95033665823560   -0.19134446857649    2.39392033929785
H          -0.51625329680341    0.67598474869172    2.43290994480772
H          -0.30390425862156   -0.78048245470567    1.96857122164928
O          -2.33375801213052    0.02328715296647    0.10955518985851
H          -1.80359352317880   -0.59890591712926   -0.42838620143528
H          -2.03452898716380   -0.11965070765466    1.03608412924106
H          -1.68301207196169    1.36096767110758   -0.24875147191700
N           1.25428253718467    0.88564382990229   -0.37423382809036
H           1.08420826046854    0.01801261060735    0.21219631543488
H           1.54757326900554    0.51390076437927   -1.32229450285682
H           0.35546344949271    1.42130809970748   -0.46123201707848
H           1.96441530464494    1.46711674507896    0.06041950780424
