    26
        -50.45082399  Gyration_radius:  2.56745319252 Dipole_moment: 6.486
 S           1.56347168689699    0.94229054810135   -1.53376498061612
O           1.71260227706386   -0.41480135225865   -1.00105920336015
O           0.63174107543367    0.92090977243154   -2.66748816526267
O           1.24729870859614    1.91570810440896   -0.53139312668169
O           2.97371384074527    1.34208112164067   -2.13547633320393
H           3.12327076336918    0.70289658134391   -2.82597665460200
O          -2.41675526577280   -0.13978644714946    0.04932629016870
H          -3.29653389969291    0.19161231717433   -0.13331889731946
O           1.35213525887185   -1.00162167937391    1.60991395531380
H           1.63855652835569   -0.72156638930766    0.72286409057649
H           0.58996885184358   -1.58607581136238    1.46202800600792
O          -1.09032946112326   -2.28000876757304    1.18504534895077
H          -1.65313285733579   -1.52949225505523    0.93369275163797
H          -1.33497005855599   -2.51314478252068    2.08213863478845
O           0.32845663782793    1.07178738672335    2.93172913842947
H           1.03239255966045    1.71802441990491    3.00660411270422
H           0.74269624725232    0.28040984838718    2.50962254373945
O          -1.06037782368257    1.85931962963897    0.80125406888200
H          -1.87786227712814    0.67460354836060    0.37079497204136
H          -0.67885500997278    1.62919463838303    1.68175330095757
H          -0.27191754123182    1.99083731491614    0.23709234865562
N          -0.68677672604032   -1.04337942159707   -1.76368584780883
H          -1.45033363565873   -0.73931230793701   -1.10416256557854
H           0.18563911096597   -1.23086676448810   -1.22508933023426
H          -0.96715045248103   -1.83981563209183   -2.32559109789497
H          -0.33694853815713   -0.19980359103008   -2.33685334030402
