    26
        -50.46911891  Gyration_radius:  2.45462398496 Dipole_moment: 4.000
 S           1.18298174583745   -1.46446444954471   -1.21233962612668
O          -0.04555847064082   -1.82375707782745   -0.51728960788078
O           0.99643703852517   -1.10211955310623   -2.58728199946379
O           1.92556990469472   -0.46537039276496   -0.43491200961542
O           2.09207743106047   -2.77079053685100   -1.21126057982210
H           2.38696832923859   -2.81409159998545   -2.11550529216897
O          -0.19113051842099    2.45423350474610    1.10246619608677
H          -0.09542618865591    3.40028037657219    1.21362488460263
O          -1.48696061237304   -0.02981716868864   -1.80111167836091
H          -1.02483378044505   -0.76474614496921   -1.34299598222280
H          -1.37989544755419   -0.22186956522710   -2.73580420595361
O          -2.42240039528393    0.73407922223224    0.76471353499849
H          -1.79159591070947    1.44809071203668    0.93817662089598
H          -2.34698530543652    0.53508039014126   -0.17803958166151
O          -1.19263772888226   -1.36951064286842    1.86422867740129
H          -1.83403170216771   -0.68044831320504    1.56968614389991
H          -0.90979920301571   -1.80822876093301    1.04154456791556
O           0.54358465816921    1.70279829280116   -1.26221662834856
H           0.09665400355371    2.24781257536891    0.16212707378017
H           1.20951666700327    1.00827757434030   -1.11942675992525
H          -0.23683083527009    1.22808354636822   -1.60870179172706
N           0.92422049890412    0.11872419654669    1.92003045307797
H           0.05923768660682   -0.53225599561399    2.03084300398980
H           0.57787026918104    1.09150375074862    1.80846595240989
H           1.56634069690231    0.03776289265621    2.69984311289447
H           1.39662714928126   -0.15925683292707    1.01113551128904
