    26
        -50.46361291  Gyration_radius:  2.49261277512 Dipole_moment: 6.637
 S          -0.40175035391629   -2.31759984471815    0.08578190833684
O          -0.62580037108494   -2.41574473237505   -1.33693836409191
O           1.01704650679808   -2.40970929637305    0.43420511938721
O          -1.01377979413848   -1.15532547272506    0.70754820693811
O          -1.10393054754225   -3.58573552012114    0.73022111267277
H          -0.95659844286990   -4.23699160229989    0.05273451777204
O           1.37629757340420    1.37967200564956   -1.22820672420515
H           1.93687750783460    1.69079371044100   -1.93987051696175
O          -2.33889875385371    0.80444221566457   -0.60024562819843
H          -1.88653782943295    1.54693499757851   -0.17555266870234
H          -2.05974478189448    0.01640578382541   -0.09996032480642
O          -0.43213699885027    2.67419916872644    0.37154773872759
H           0.23872308734062    2.29170557222871   -0.22786594292451
H          -0.54321106941579    3.59240688849124    0.12274444884057
O          -0.13889275571454    0.74155010205507    2.36613102877283
H          -0.40230352807450    1.53718888467371    1.87966944593238
H          -0.63224681377714    0.00661817758248    1.94782215334251
O          -0.46278972586212    0.02898252216230   -2.34043504149323
H           0.65853169186436    0.80406477759113   -1.68332727065822
H          -0.46642876181952   -0.92099249346487   -2.09727280075992
H          -1.27640710131044    0.37960661052605   -1.91202367565929
N           1.93618596008415   -0.07887144961479    0.99410322739401
H           1.61215221465610   -1.08263505534440    0.77082263982714
H           1.88301472141299    0.47707347337181    0.11707103026118
H           1.21141438360667    0.31037049329897    1.67615797060290
H           2.87121398255567   -0.07840992683065    1.38513840965339
