    26
        -50.45538160  Gyration_radius:  2.5657773416 Dipole_moment: 4.102
 S           0.77624159515442    0.26192917578452   -0.65894843172279
O           0.29747896636169   -0.38475477656512   -1.85593979485085
O           1.69675035917969   -0.55597505258042    0.12724320773116
O           1.54061388185103    1.55153780968503   -1.02973510271183
O          -0.35560818994954    0.68021988626452    0.20483711131598
O          -1.11818350704142   -2.65854577984485    1.80636409257483
H          -0.69821227245962   -2.72559177358186    0.90438646289231
H          -0.71104807319723   -3.34361036368474    2.34046520688703
O           0.23405471208989   -2.69260013166709   -0.42884235051156
H           0.98969021064104   -2.13595864298837   -0.16815959967519
H          -0.10545941801994   -2.22557508863755   -1.20407737616897
O           1.98028262023059   -0.38863640319052    2.69236648957993
H           2.02373356297905   -0.49428111379391    1.70621546404139
H           2.47370437655652    0.40741827124471    2.89819705702671
O           0.20129844983777    1.96933393717777   -3.15054152186218
H           1.11542466067025    1.86228366561129   -1.89372993945511
H           0.13009886866378    1.00293736911144   -3.17293998151072
H          -0.64089432356970    2.27205772145440   -2.72898923091652
O          -0.54963679208411   -0.27530977858805    2.46067647176603
H          -0.84947903616338   -1.24595583934809    2.26456861138093
H           0.43906151949817   -0.32033510179846    2.72214303894004
H          -0.51841748656785    0.18768186305223    1.48689880851970
N          -1.92954901405881    2.34844713881410   -1.55368626419427
H          -1.47360280640846    1.75772818669320   -0.85884989254895
H          -2.80912876694033    1.91025075971321   -1.79680839855469
H          -2.13921408725969    3.23530406167168   -1.11311412798346
