    26
        -50.46598133  Gyration_radius:  2.54762047022 Dipole_moment: 2.420
 S           1.73963579561046   -0.64065709927678   -1.19928408559574
O           2.03778423023875    0.35472733616525   -2.20164330706578
O           1.66098219430675   -0.07863252851343    0.14828446915559
O           0.58028389117977   -1.46336849912563   -1.48958056793460
O           2.97921102923383   -1.63436137352456   -1.18180586593321
H           3.70409200326299   -1.03473549604589   -1.32159651136321
O          -2.52009886623759    0.20943966333027    0.12423381699429
H          -2.91479544647250    0.26978053294017   -0.74702118430843
O          -0.00334453764411    1.97753414312812   -2.59946034757137
H           0.73316269356536    1.32613102620206   -2.55661198122555
H           0.36513493617413    2.75846345344153   -3.01641912700793
O           0.57872765774352   -0.98555076579607    2.43606558797992
H           1.19589349344755   -0.64647756655373    1.76039454663661
H           0.07758628673913   -0.19974594812433    2.73989459001168
O          -1.02239641474891    1.19428973346732    2.68370710509349
H          -1.92831238813987    0.96077991188081    2.46577622086426
H          -0.67848373977524    1.65343834311526    1.90354418060095
O          -0.32402215211420    1.65449577304543    0.03108320613877
H          -0.29967500426457    1.95193611290419   -0.90246169808163
H          -1.72274533334102    0.80611751895463    0.09453551585733
H           0.45193265350256    1.05788600655867    0.11310567444250
N          -0.95763689197835   -1.92661865710945    0.55048020622745
H          -1.71371054062631   -1.21058834888402    0.43145937460800
H          -0.31651541224198   -1.82744918330798   -0.29521957106301
H          -0.37165217561289   -1.66058756643441    1.41179641363306
H          -1.33103795181452   -2.86624651243714    0.61674331889901
