    26
        -50.46361287  Gyration_radius:  2.49250559857 Dipole_moment: 6.646
 S           0.26520281213512   -2.18259150728153    0.83942995486274
O           0.64407933356438   -2.72054951544138   -0.44545340965527
O           1.40387239095213   -1.61672402027743    1.56466695978277
O          -0.83858839485238   -1.23842667663497    0.78902624580092
O          -0.24500357507306   -3.41425612122780    1.69924916420356
H           0.33151251751033   -4.10339383998383    1.38689737851097
O           1.29479698605356    1.44521903811424   -1.24060732058044
H           1.97499567952758    1.75749939306908   -1.83831998569669
O          -2.05382417764001   -0.36291944170547   -1.46130625424623
H          -2.02783082225380    0.57935365949485   -1.24294118923705
H          -1.77873412429600   -0.82090133554347   -0.64659430693400
O          -1.27357674226436    2.28638897898079   -0.79020665769616
H          -1.53187615447170    2.99378073489320   -1.38201931239182
H          -0.34619136587173    2.05895675393954   -0.99960170545359
O          -1.23946822965861    1.20380521602913    1.78329884646697
H          -1.50740833282240    1.67855233082567    0.98206123942632
H          -1.30596722070641    0.25378722257768    1.55612748921682
O           0.48264652068849   -0.75474902276939   -2.21157245328402
H           0.99917019905177    0.53832165903245   -1.62016733482884
H           0.65337030547894   -1.53266183160634   -1.63944106482254
H          -0.49598468153013   -0.65582853756868   -2.18072441454335
N           1.34306106379267    0.94632747943639    1.42898166807285
H           1.42582288956558   -0.12456152680324    1.52239728214397
H           1.47658696428444    1.19144003481347    0.42734464522455
H           0.33424904044800    1.17887590541014    1.69415316796958
H           2.01508712835470    1.41525497025784    2.02532136769776
