    26
        -50.47083144  Gyration_radius:  2.45164161726 Dipole_moment: 3.531
 S          -1.71823702123743   -1.18705372069068    0.06329600029956
O          -1.17374695982575   -0.64294389363336   -1.17912142914786
O          -0.71506840240376   -2.00786699307126    0.73793158739660
O          -2.31153829349620   -0.18350520421779    0.90536950901902
O          -2.88085959423374   -2.17414858540380   -0.35675795911230
H          -2.44829481967828   -2.81999125325133   -0.90664096573513
O           1.10822480746986    1.29487154993869    1.32257988988890
H           0.61018851317704    0.91802223004318    2.08049443978586
O          -0.53484778149341   -0.12787764886733    2.88238037207789
H          -1.30130572778103   -0.06029398265750    2.27897729419481
H          -0.32701983084559   -1.06541372881888    2.89068916309345
O           1.43895056887866    2.22089927720284   -1.77689761059489
H           0.52393770239769    2.32948123855709   -1.47965418933104
H           1.98713373300436    2.40793297323520   -1.01118408569897
O           1.26135592645080   -0.42378515286151   -2.36510516477603
H           0.30531703661308   -0.53907698551272   -2.22836058930306
H           1.40522408843748    0.54515318588173   -2.36943625895296
O          -0.92952124459770    1.84913713024851   -0.38638643831017
H           0.40928235046187    1.63600658625599    0.72624932296553
H          -1.06339778059325    0.94784053490480   -0.75671462363643
H          -1.70648282097349    1.99447558262708    0.16032762849710
N           1.64215051900421   -0.99842945643657    0.15990764408453
H           1.57754305994736   -0.04880254997988    0.64478391116907
H           2.45642421369406   -1.52170911901233    0.46073625338739
H           0.74849082205582   -1.50736996511103    0.39990830834466
H           1.63609693557420   -0.83555203936897   -0.89737201960997
