    26
        -50.47168695  Gyration_radius:  2.49110956028 Dipole_moment: 3.008
 S          -0.53824717134982    2.23803970021600   -0.06734066403388
O          -1.09944131712723    1.97411704911869   -1.38795269109453
O          -0.95909471499121    1.21015859827034    0.88181735482379
O           0.88752735935897    2.44482125659657   -0.07243728727808
O          -1.19459177847744    3.59314754076952    0.41917478552691
H          -2.11700998548172    3.41738092997281    0.26855490884716
O           0.19783754142274   -2.42548651212118    1.19885470608120
H           0.39273186760617   -3.12640288804441    1.82103815777970
O           1.22863084410445   -1.61868580838206   -1.22360314401015
H           0.94182337478483   -2.08187243117905   -0.41566503079125
H           1.80133463160563   -0.89203191681816   -0.91186863006822
O           2.57465447549087    0.48454119915794   -0.13977300429993
H           3.43109060484624    0.83753694855400   -0.38463906626712
H           1.94881639014643    1.25307974693624   -0.15441775421199
O          -2.15296485056750   -1.17284491290453    0.51109466885461
H          -1.45930573802397   -1.77050488937170    0.84474342258856
H          -1.87855525938337   -0.28371095220095    0.80922438117589
O           1.01387589155177   -0.12266089172715    2.09475426255289
H           0.28955734943975    0.45478126266846    1.77745961672712
H           0.52112070146193   -1.57566785825214    1.61970341119816
H           1.76767988196950    0.08670120350363    1.52404804958463
N          -1.12592026303764   -0.59283370182215   -1.83348305976025
H          -0.14555480176454   -0.98973135527846   -1.72708639885511
H          -1.68454662113252   -0.93254824397297   -0.99229269833635
H          -1.09408291018211    0.46448595567167   -1.74858404281605
H          -1.54736548226856   -0.87380902937255   -2.71132426390811
