    26
        -50.47168700  Gyration_radius:  2.49103111168 Dipole_moment: 3.003
 S           2.00555459837933    1.11989052294226   -0.16044495373131
O           1.37893992638657    2.17970501776918    0.62231042324555
O           1.71610318446763   -0.18724680930802    0.42453193352521
O           1.70481304358002    1.18152572772688   -1.56808473576888
O           3.56582023881596    1.34033069263457   -0.01671471696819
H           3.65650735424517    1.42263258726635    0.92630603597879
O          -0.03819049068519   -0.93954073496415    2.32125592961841
H           0.74447224316474   -0.79543955209307    1.75435036621956
O          -0.50656396506219    0.27610954993269   -2.55927524903364
H           0.33045733211218    0.66628755599492   -2.19900307692913
H          -0.60542349750257    0.63396536497600   -3.44256422366178
O          -2.29768669839431    0.29131710289818   -0.51029015923428
H          -1.74201943051395    0.33840343375844   -1.31176783584904
H          -2.22563397349386   -0.63104836575763   -0.20423176884217
O          -1.54149993567401   -2.19780929446352    0.39136210012852
H          -1.90828046384415   -3.08044887337620    0.33813445124287
H          -0.75207189866357   -2.18198817085192   -0.22565573639807
O           0.50694699249072   -1.93766323206139   -1.19186534260464
H          -0.61271131883760   -1.53271915681188    1.80380076020551
H           0.17687991065292   -1.35693262812872   -1.89293473400676
H           1.08159272522196   -1.36679563129394   -0.64161522141318
N          -0.94592983262785    1.37528742932730    1.48092019602860
H          -0.03959111013653    1.79301180932774    1.12018427313951
H          -1.43557831397241    2.03184449248754    2.07791088547315
H          -1.54966143293357    1.06849614553150    0.66145102417763
H          -0.66724519716619    0.48882501654288    2.00192935546334
