    26
        -50.46132325  Gyration_radius:  2.48133584014 Dipole_moment: 7.383
 S           0.06261538140810   -2.11643344123304    0.73474637290760
O          -0.46458067190705   -2.35752773630298   -0.60977265308696
O           1.49429329061965   -2.24279893571832    0.81053430679023
O          -0.46205120086388   -0.86672832398341    1.26852016084764
O          -0.52599423006735   -3.26714691217967    1.65464863629570
H           0.22530856914447   -3.84813236514490    1.70521422786614
O           1.08441561504805    1.26006502312795   -1.73520276295496
H           1.71512908189542    1.51974756725618   -2.40745813409367
O          -2.31803275843813    0.65899476789729    0.29830027951536
H          -3.10109532802069    0.62014187607043    0.84855719266429
H          -1.64270565544633    0.07386804909436    0.73354066142567
O          -0.36396959816878    2.71301700578673    0.23760219166074
H           0.16952304050768    2.38802032672332   -0.50085117061760
H          -1.14688382332964    2.14630933920184    0.27557532092974
O           1.07655927948145    1.27497354729758    2.10220549349136
H           0.50430046358157    0.49466425675963    2.04200700293304
H           0.60988234786224    1.97618754333072    1.61033981715858
O           2.44456549708792    0.16051679723005    0.11279832216309
H           2.21788365418724   -0.76855844577709    0.30897321863393
H           1.63741363872347    0.80527593501633   -1.00471366112708
H           2.15210608968306    0.65426105090478    0.91649582043905
N          -1.08665861267809   -0.24665723944207   -1.91210400632564
H          -1.47922396094028   -0.41824918660112   -2.83089280422422
H          -0.81493262553396   -1.17475444495104   -1.42046771625609
H          -0.21921426794513    0.35204149815082   -1.95968278042794
H          -1.76865321585906    0.20890244748217   -1.27891335664967
