    26
        -50.46926179  Gyration_radius:  2.54934506139 Dipole_moment: 4.551
 S           0.25778651634506    0.12935795522789   -0.48137358466826
O           0.46368660094765   -1.28922529275083    0.11901266235771
O          -0.67888506272542   -0.06259539294913   -1.58140173279658
O          -0.37118328425842    0.94028489582423    0.58215858614828
O           1.53232981090041    0.67138960214790   -0.87952646446554
O          -2.11084681742677   -2.03529746728402   -0.56083323886365
H          -1.59213453303909   -1.43969269928546   -1.14474742452621
H          -1.44251839474146   -2.52183232482129   -0.06941609996426
O           3.83587960458546   -0.60877724075222   -0.52400046193551
H           3.96147157236447   -1.20976282609331   -1.25938385140402
H           3.04930230502290   -0.06743623276787   -0.74553882932798
O           1.92614851447304    1.57280135556213    1.78782195874453
H           1.02404783516452    1.46310260204988    1.43458439269519
H           2.45696056818830    1.83160204918360    1.02882290394074
O          -2.82222738569805    1.48650429487878   -1.83079146293382
H          -2.52627885949379    2.38613413737046   -1.97840446209746
H          -2.02459345779409    0.91966973347199   -1.92501277354763
H          -3.14552016822685    0.80618583058036   -0.30786062703423
O           2.40140360384755   -1.05152111991787    1.71207268258867
H           3.13070656583609   -1.04615366110741    1.06002904949011
H           2.30076994734682   -0.10896405612216    1.97955403910507
H           1.23475365249230   -1.23982727228055    0.80072479675471
N          -2.83900137223393    0.25652770088287    0.52768168105994
H          -1.82357737783972    0.57968901607914    0.69457019205778
H          -2.75971766237892   -0.75316345046438    0.22744147398876
H          -3.43876273167307    0.39099987333407    1.33381658464070
