    26
        -50.46875466  Gyration_radius:  2.49836026851 Dipole_moment: 1.339
 S           0.23159550906117    0.07530730324052   -2.14822008874124
O          -0.03144885037542    1.16279253613434   -1.20851955110440
O           1.65684608878111   -0.19270513519556   -2.25917353254839
O          -0.56625630906979   -1.09849459695128   -1.87309787229745
O          -0.22927700203590    0.59466344859981   -3.57452238916961
H           0.47391387865428    1.18111422071081   -3.83611529500759
O           0.14211055961412   -2.17101031987702    0.47812963449885
H          -0.14917089075991   -1.95874711377577   -0.43170747488305
O          -0.51640472880493    1.39101988396517    2.73783014408121
H          -0.95923342837295    0.56606763150250    2.46282209571052
H          -1.15252398033573    2.09602671905720    2.60477658752076
O           1.48759414154868    1.67595698086642    0.94848969824498
H           0.85047773392206    1.62630220085166    1.69229640242687
H           0.93945832653652    1.69253964583659    0.13963068290731
O          -1.85727332258575   -0.75549472924181    1.71861329602352
H          -2.14313479537991   -0.33194336302544    0.85839263025106
H          -2.63320844000218   -1.18069314944622    2.08578595346954
O          -2.44357224870052    0.30937936365577   -0.59245582673691
H          -2.25664912846158   -0.43057949101454   -1.18858855513375
H          -0.52324471931883   -1.75747163679373    1.05834561023466
H          -1.66203547887416    0.87909937907696   -0.73751095859786
N           2.30006106814354   -0.68954615410116    0.23203440014690
H           3.21411060459606   -1.04637591329533    0.48615064172443
H           2.09388348654986    0.26701389200834    0.67173213020973
H           2.21306795516781   -0.53867382967962   -0.80907718229908
H           1.52031396051861   -1.36554776311700    0.48395884907290
