    26
        -50.47229212  Gyration_radius:  2.48041777718 Dipole_moment: 1.992
 S          -0.65380744976921   -2.18385298209063    0.03513787972663
O          -1.33925398369837   -0.99047461816518    0.52263359718842
O          -0.69599053917731   -2.27539486030197   -1.41133816835555
O           0.67702620218446   -2.30443793390851    0.59401574267194
O          -1.47597326869408   -3.42739708821830    0.57238848818744
H          -2.19373044948908   -3.46149613359860   -0.05096802771752
O          -0.44662004194204    2.68929229625169    0.13375678033827
H          -0.81404105081199    3.56131881362216   -0.01147388352226
O           1.88415007613714    1.39306838953355   -0.54924732575268
H           1.16179888979753    2.01509946848107   -0.34797197891241
H           1.53300831917511    0.80524963383928   -1.24471132807287
O           0.67826445984249   -0.28900562556550   -2.34322212496846
H           0.19700248750920   -1.08168034692787   -1.99213173062622
H           1.14329275209951   -0.58972235642463   -3.12560983087895
O          -0.67059873803398    0.94842447425763    2.26566377610693
H          -0.66942793695654    1.70819265472585    1.65587846212062
H          -1.10894607068096    0.23063674553693    1.76890851878274
O          -1.64828953728176    0.89709361341928   -1.32683104476965
H          -0.97843939366821    0.62147345422355   -1.96763430071607
H          -1.67848372116036    0.16723231132581   -0.67354422094412
H          -0.96932595240957    2.06163346914961   -0.44418710398257
N           1.64274426384645   -0.10023895382646    1.60974086245737
H           2.41567775296267   -0.20505422183691    2.25624284829852
H           1.31718998173170   -1.04008850167019    1.24652520759675
H           0.79154778463061    0.35516851522304    2.06015039605259
H           1.90122513386012    0.49495980293890    0.76782848971024
