    26
        -50.46309065  Gyration_radius:  2.4468045252 Dipole_moment: 4.812
 S          -0.56131021171495    1.62516607419684    0.98895982074996
O          -1.37192268143810    1.46688458608523    2.16180935100235
O           0.73477374382192    0.93548128126796    1.08118818136135
O          -1.20654834202835    1.34851196907068   -0.27574062280230
O          -0.17607943076427    3.18272262334489    0.91027903243712
H          -0.17693800351233    3.46515769974723    1.81993857406436
O          -1.32454473463822   -1.31240250236758   -1.14107003599481
H          -1.91057315279665   -0.62109380796430   -1.46100060191593
O           1.05650416763635   -1.65674254209008    1.90949353427581
H           1.12472611259116   -0.69554221099521    1.79690894071745
H           1.24911332715810   -2.04749786845461    1.04368163254879
O           0.35533429500844    2.41799845960472   -2.10303727041817
H          -0.36686745535833    2.14390118782700   -1.49522569784142
H           0.71006766774259    3.22326202116503   -1.72268604478499
O           1.05899625624443   -2.81493301571468   -0.69144457760443
H           0.13752666313738   -2.60348244230695   -0.89718959567421
H           1.08684465016387   -3.75406970652369   -0.50110692428381
O          -1.55932857664009   -1.15061880514239    1.45453621530885
H          -0.70909524298997   -1.47385905374237    1.81925810841000
H          -1.65577749995137   -0.24090557763578    1.77839340799400
H          -1.46955128572476   -1.29200295820744   -0.15077609194226
N           1.02802404127778   -0.04195603958002   -1.29263016526051
H           1.79218097866637   -0.68311245516643   -1.48547704632996
H           1.00400730462490    0.79924859759916   -1.90036252236189
H           0.10032137424137   -0.54955812119671   -1.35319594776830
H           1.05011601524906    0.32944261718274   -0.29350365388655
