    26
        -50.47168674  Gyration_radius:  2.49113585613 Dipole_moment: 3.001
 S          -0.62121886094218   -2.16931610468833   -0.45743246679031
O           0.69097221458443   -1.63083850688436   -0.10740388962425
O          -1.53627408639879   -2.06013841309638    0.67381662497946
O          -1.14311780470885   -1.61870758186434   -1.68230108851251
O          -0.42003265342156   -3.71961937227697   -0.70220769471508
H          -0.22468044028468   -4.02225476705443    0.17790423659381
O           1.79661059590616    2.00859558282934    0.32213472067720
H           2.51741470365455    2.62337977942890    0.18478599397098
O          -1.08222503318273    0.91303424306536   -2.21009016737713
H          -1.68231958226584    1.07939991204860   -2.93826263268580
H          -1.15292389205134   -0.05629463662428   -2.01468757397246
O          -0.94994717317830    2.16047394165834    0.20555193354506
H          -1.08547417487973    1.79213580527313   -0.68842199639706
H           0.01114863549247    2.30372051673003    0.27915491507081
O           1.51159334460245   -0.15973361062058    1.99137331967409
H           1.40282992993254   -0.81704788357248    1.27670651147889
H           1.78628953857900    0.65713964440687    1.53655391995640
O           1.59505676868244    0.34214073612505   -1.66598079507332
H           1.79586590396866    1.39270964686010   -0.46830777026094
H           1.34918354552067   -0.47444357290330   -1.18472794116645
H           0.78240740578414    0.62230026391018   -2.11201173031189
N          -1.09123782568743    0.17418080025353    1.93843185054750
H          -1.65158850289235    0.31724943828086    2.77075699612820
H          -1.17413534991322    0.99428867509098    1.26717458840189
H          -0.05532713793473    0.06999152046409    2.16430554068695
H          -1.36887006896834   -0.72234602683927    1.44318460517485
