    26
        -50.47229244  Gyration_radius:  2.48093216714 Dipole_moment: 2.003
 S           1.55778403160121    1.55043898355358    0.60527988042467
O           0.71435510263802    0.69103922497596    1.43031176210213
O           2.64355648648848    0.81098573223509   -0.00917987245182
O           0.77369629025399    2.33082049185009   -0.33012846148251
O           2.24599223142855    2.58792145693948    1.58597666228906
H           2.98905835978053    2.08318086953960    1.89894855117462
O          -1.60906710283221   -2.15983943661835    0.45342885991534
H          -1.92028122755725   -3.02744820723122    0.71195597272471
O           1.58590444878178   -0.88642315818319   -1.65356937550258
H           2.15912730190430   -0.95630544345613   -2.41852843702340
H           1.99890319675637   -0.20260403730229   -1.06615795041746
O          -1.94599819666834    0.32228664304287    1.61624453980816
H          -1.99004489005436   -0.61065146494306    1.33917879782118
H          -0.99865826317324    0.48731126132391    1.78716227226204
O          -1.13855069607928   -0.86763296995301   -1.93100151127425
H          -1.41389421160903   -1.44609058859481   -1.19695328288866
H          -0.16286891286400   -0.89193437742709   -1.92745395233550
O           0.94838666593502   -1.90086572910925    0.87905749317826
H           0.95356155033326   -0.97469672282495    1.19963800193925
H          -0.63120475097884   -2.13462934901390    0.66420716819580
H           1.33441831963027   -1.85309441560283   -0.00640556600556
N          -1.64339907094352    1.43065803628371   -0.74254476618524
H          -2.30345032859893    2.08634961628116   -1.14358023501845
H          -1.51115061999354    0.57030333121005   -1.35279162278203
H          -0.69193757780918    1.87675791166966   -0.61173106888367
H          -1.94423813637241    1.08416235135212    0.21863616040973
