    26
        -50.45377501  Gyration_radius:  2.6287659245 Dipole_moment: 6.283
 S          -0.23843179548501    1.75288822161776   -1.96218561135060
O          -0.20903214048937    0.27672213739271   -1.80175026071868
O          -1.45962294492093    2.31342403562411   -1.43272305269392
O           0.98883206536275    2.32088262063099   -1.47634182673278
O          -0.29791624482852    1.99470540383797   -3.53550587939068
H          -1.23484237002430    2.00025259004925   -3.70716190976560
O          -0.25187947065013   -2.03739974838942    1.62293144958640
H          -0.77503591117514   -2.63601049629370    2.15708028317077
O           2.10293133619286   -2.44329023639083    0.33853642215500
H           1.28399997052218   -2.41987189198776    0.87553940648331
H           1.91036590972464   -2.99682151962547   -0.42035853509392
O           0.38937997361383    0.49476661975752    2.24462640921049
H           0.10192608322144   -0.44150939056665    2.14899514541977
H           0.66779742569803    0.61613600351899    3.15296124127371
O          -2.11150033431695    1.23496430893917    0.92291900197001
H          -1.29049184846207    1.31695753870423    1.42153161207302
H          -1.96988239195005    1.72693189811412    0.08746145017645
O          -1.80773296064054   -1.15142283844422   -0.19396313717802
H          -2.15193153315003   -0.34976536669290    0.26739342355494
H          -1.28568247264586   -0.77022254577736   -0.92589387763696
H          -0.86751639318689   -1.73790486812631    0.86450350841894
N           1.73431579565365    0.17982707385971   -0.11923470900247
H           2.14496225991128   -0.77237653567993   -0.00716457683615
H           1.32598657091717    0.48441629404053    0.78419893960949
H           2.36943644242348    0.89511825168506   -0.46823398083634
H           0.93156497870472    0.14860243019748   -0.83816097585925
