    26
        -50.45377486  Gyration_radius:  2.62901763403 Dipole_moment: 6.282
 S           1.26197859750424   -2.03079099829823    1.12548498937467
O           0.20654140396566   -1.82047357063832    0.10207645270707
O           2.55500695148929   -1.60999511870405    0.63873859073564
O           0.84063807403862   -1.47572904209533    2.38211486571701
O           1.35819019557244   -3.61135746217315    1.29856973266796
H           2.00598940207708   -3.85089015380602    0.64260381910281
O          -1.14776898917496    1.66320822084926   -1.66256183403025
H          -1.16542880431561    2.17572759569701   -2.47144804187824
O           0.24884392194643    2.25136983110003    0.55377948364893
H           0.20814606414780    3.17378677443354    0.80829688974471
H          -0.22248327715189    2.16362220480832   -0.30568172463810
O          -3.18141666820272    0.57497669696526   -0.23398964749616
H          -2.55112083684823    1.04711112521862   -0.81648373868735
H          -3.49825698738896   -0.17795338887364   -0.73608408756260
O           2.42463215384158    0.72106942885251   -0.65973653107043
H           1.94606266008273    1.27829201602958   -0.03535424608512
H           2.61112491246086   -0.11610788090082   -0.18597357258613
O           0.43314549026021   -0.29293385814630   -2.08795973478623
H          -0.56157900598343    0.85135608244454   -1.86558746893863
H           1.27817299267654    0.11529907160949   -1.78247974025426
H           0.28287350885723   -0.99538113452006   -1.42652884555297
N          -1.09421908435304    0.00635654600158    1.36170028253379
H          -2.04968361186197    0.17965761550728    0.98107066404776
H          -0.52393972594980    0.86642857352478    1.25774230435835
H          -1.05600049977630   -0.31716033205312    2.32647087196480
H          -0.60944883793611   -0.76948884282388    0.79122029697214
