    26
        -50.47039590  Gyration_radius:  2.40106775807 Dipole_moment: 2.069
 S          -0.26364201702370   -1.74480459567034    0.29723613346401
O          -0.35018837838235   -1.47188452499868   -1.12486468311331
O           1.07508335142916   -1.46378530277986    0.81582297588514
O          -1.28872248865699   -1.09550423392402    1.08336526217708
O          -0.49196836763053   -3.30186346142208    0.44027629394649
H          -0.28416208809370   -3.61583685190564   -0.43349693297958
O           1.86082580826761    1.76759885412999   -1.06482214813983
H           2.16961839856607    0.88888033779823   -1.38410006254185
O          -3.26226024651562    0.03804045900489   -0.41030616894671
H          -2.60267438067061   -0.47040226211268    0.09539861662663
H          -4.06121980210827    0.04116131417297    0.11849491785106
O          -1.03417903779009    1.54700187597611    1.53761643020634
H          -1.10159800049676    1.70038544978399    0.57540279010083
H          -1.28430474392937    0.60958003427994    1.63009737667564
O           2.26530246553347   -0.84074156100416   -1.51994358736197
H           2.04265378424064   -1.15281750136546   -0.62454789040318
H           1.48274381176148   -1.06630922490863   -2.03597525386200
O          -0.85712628527374    1.14957791597728   -1.17478070809499
H          -0.63998281506002    0.19604819814416   -1.22078567308303
H          -1.81394229427148    1.15846970127639   -1.30868895384806
H           0.92552393768973    1.81459624488291   -1.31519368410182
N           1.53012745338477    1.07409554054919    1.43353911670363
H           1.45360329136380    0.03365267265388    1.32245494501155
H           1.78682013212591    1.46773133160965    0.46793602914785
H           0.54177929949869    1.40921070522772    1.65159808093602
H           2.20188921203914    1.32791887458983    2.14826678770864
