    26
        -50.46282814  Gyration_radius:  2.5084721706 Dipole_moment: 5.067
 S          -1.52310181995508   -1.46958999821563   -0.11576886306048
O          -0.42714307788200   -2.40742308122800   -0.35849802601969
O          -1.86878150013675   -1.37972091970778    1.28338240307239
O          -1.25264877250241   -0.18619045695044   -0.74125822407937
O          -2.79575255607015   -2.06187027823447   -0.84946220099579
H          -3.12053030056790   -2.65379632892923   -0.17975969341459
O           1.47359650438020    0.91446049351468    1.45423956066544
H           2.01773003873505    1.22575050981632    2.17831360983201
O           0.65378076275939    1.68091911185791   -1.10758629465848
H           1.02431176922142    1.67843949009608   -0.21233633337094
H          -0.08391265507713    1.04276379492192   -1.07103239978440
O          -2.14580040713756    2.14847506387033    0.25860236000972
H          -1.58653246173414    2.74886871573799   -0.24113255703345
H          -2.02827964319080    1.27422005653745   -0.15890833895191
O           2.20614390675158    0.00857746463840   -2.40943422343694
H           1.70199321034559    0.78500374302963   -2.04811771213769
H           1.67614093505220   -0.33487865534580   -3.13084227330396
O          -0.92809994674262    0.86822798026696    2.32027798773649
H           0.52256637291613    0.89165112015319    1.81599610788597
H          -1.43486946767440    1.49900405829800    1.77090597009136
H          -1.30010512935249   -0.00601210086349    2.07842040219021
N           1.86344306194183   -1.26223948289830   -0.09651464479155
H           1.75903373837620   -0.47202722839271    0.58146724116847
H           2.57719707930396   -1.91372880485035    0.21135068131111
H           0.91614954213073   -1.76605608979785   -0.19037707913005
H           2.10347081609902   -0.85282817733711   -1.04192746979081
