    26
        -50.46214916  Gyration_radius:  2.46070889016 Dipole_moment: 6.813
 S           0.91932053472096   -1.68433599245168   -0.69139772954477
O           1.49631991156094   -1.67663360227932    0.65510107162571
O          -0.53437302877658   -1.77407105090546   -0.60358667708687
O           1.36584635511508   -0.59533908408992   -1.51533096110393
O           1.41957148312617   -3.01989535426856   -1.36879054213254
H           1.14971191902052   -3.66709226354023   -0.72704765262284
O           0.03703458423606    2.05759336467918    1.13197737456451
H          -0.02491472012921    2.96628043214760    1.42784790350669
O          -1.65060326062245    0.71051617296153   -0.69408177802138
H          -1.20050252445152   -0.14766040639617   -0.79842505097809
H          -1.12389022635104    1.23039256932031   -0.06872893477044
O           0.03582369327750    1.62716970301918   -2.72889499649602
H           0.49478005044319    0.77745656535840   -2.75364790331055
H          -0.77419046389340    1.45616422335649   -2.22061660630148
O          -2.38348278691162   -1.24116494899889    1.24209889030016
H          -2.75460877070963   -0.48654619895139    0.76395623377268
H          -1.87582702061242   -1.71666580442311    0.55603862613195
O           1.80343849802609    1.93432706111619   -0.71749664555561
H           1.27016749508240    2.18405031438947   -1.50184900643078
H           0.78396987231125    2.03572452648273    0.44566801819128
H           1.94299311987723    0.98140002944572   -0.86381802428259
N          -0.07997649421717   -0.38533533111367    2.23485373168344
H           0.61308957781862   -0.94053760775009    1.62632025936787
H           0.12169901977402   -0.52111309932994    3.21944806286848
H           0.00488275387852    0.61899212601776    1.96649704858954
H          -1.05627957154532   -0.72367632381825    1.98390528802325
