    26
        -50.46214792  Gyration_radius:  2.46098591599 Dipole_moment: 6.840
 S           1.97201540974694    0.10851369588402   -0.50943007378623
O           1.34359423276353    1.39143682528291   -0.21336499213661
O           2.12760391804611   -0.66287753464690    0.72640779270011
O           1.30649785713893   -0.61250782983675   -1.55913478607245
O           3.43726298042389    0.41884057485687   -1.00938618174971
H           3.82814546111077    0.78230908023909   -0.22286502161318
O          -1.87885359604685   -1.19496469278060    0.74619907874903
H          -2.72643995177161   -1.61670417819831    0.89049975039668
O          -1.16380823247533   -0.22191646037571   -2.94817949629625
H          -1.44765210331262    0.45649583460144   -2.31344406597487
H          -0.19970663904171   -0.22938809178257   -2.88615353238274
O          -1.35315538942653    1.24983611158084   -0.57694423626390
H          -0.37880643083706    1.27089130987691   -0.59183989850691
H          -1.61003576040116    0.43107914278370   -0.12725871836059
O          -0.16577135595967    2.38546148340568    1.74691485227178
H           0.55227789628472    2.29919722418352    1.09008698502684
H          -0.96121460076179    2.46049968983193    1.20166435968351
O          -0.76653825170132   -2.29984593908334   -1.27801490468399
H           0.14585619367817   -1.95839941314245   -1.27560533531145
H          -1.44337947633492   -1.69474175853811   -0.02200471508207
H          -1.17074246494164   -1.79314239672412   -2.01408414509734
N           0.10342065423166   -0.20153597439568    2.25629959669422
H           0.97421221015563   -0.42766946904825    1.66545573976696
H           0.23140483253573   -0.51180840036275    3.21333379365578
H          -0.04668966996785    0.84970329706811    2.20137329277682
H          -0.70949776304564   -0.67876213077092    1.80947486151383
