    26
        -50.46907352  Gyration_radius:  2.47635829885 Dipole_moment: 2.904
 S          -0.30231717491259   -2.21030890106670   -0.08021444516570
O          -1.67227073444680   -2.10852675945375   -0.52363697902827
O           0.60925862378702   -1.32427214344030   -0.78957109556023
O          -0.16383888970054   -2.07451385781267    1.36544374051610
O           0.17428358236345   -3.68107675669525   -0.43846271761657
H          -0.56456594398020   -4.19086836180157   -0.12424796379393
O          -0.97851754623016    1.92636884670299    1.22798245597345
H          -1.62278270777254    2.47230665253085    1.67974668500763
O          -0.34855278725545    0.48475057058278   -2.43567557358843
H          -0.26264584433927    0.17767622655205   -3.33875189839567
H           0.00386569457125   -0.23677475525060   -1.86146347528514
O           2.51743863302297    0.41396976585068    0.03367197788752
H           2.12416764503643    1.22855532060771   -0.36084769239134
H           2.06205384529098   -0.32131326273332   -0.41387215308213
O           0.92299706799834    2.36407689074455   -0.84718376663697
H           0.48045018040352    1.85757382792607   -1.54790046376069
H           0.28024229755831    2.42199822664810   -0.12623747265545
O          -2.27740526370295    0.46591597831449   -0.46941453048671
H          -1.50480560276613    1.34195264292999    0.60314684478133
H          -1.83995987698592    0.67283005504951   -1.31006114831778
H          -2.18981031525773   -0.50765581952225   -0.39511662271031
N           0.91596314812982    0.17610137920120    2.06317801018816
H           1.69638973036806    0.31488864747241    1.32922545929851
H           1.27145541724066    0.20535200093733    3.01168696952807
H           0.19036635366010    0.90338483581751    1.90225636845606
H           0.47854045791880   -0.77239125009181    1.84631946683858
