    26
        -50.45602560  Gyration_radius:  2.61277285504 Dipole_moment: 5.390
 S           1.35536167313007   -2.20500881308262    0.16737801277837
O           0.27003843705186   -2.89559442452936    0.84648065649680
O           0.91996186360963   -1.35890281646594   -0.91394852953960
O           2.20066139605170   -1.46832511147675    1.11454441275829
O           2.27655850302924   -3.33675909627298   -0.46075775935770
H           2.42009235404758   -3.93598767821833    0.26642914802481
O           0.84254796651710    1.83434028001754   -1.35065607854813
H           1.68815827459328    1.69815105824409   -1.77980216712186
O          -2.51947843272375    0.57170633187887   -0.39608263327669
H          -2.24071495280746   -0.09606592765709    0.24763404137989
H          -2.16095515050281    1.41425090539421   -0.07215965317834
O          -1.12954157724377    2.92312511356087    0.26086594454165
H          -0.43283704422231    2.76257990113674   -0.39415558301400
H          -1.64567544263503    3.66114270655091   -0.06661483693865
O          -1.26384413057372   -0.95917987899898    1.55188343183807
H          -0.73598345420512   -1.74502194357041    1.23565141225204
H          -1.68449701738240   -1.23868153580109    2.36691960088618
O          -0.75609273337369    0.13055655658300   -2.38646769956005
H          -1.53978190177207    0.21616532655326   -1.80064680078842
H           0.19920277252922    1.21023246814532   -1.83798533129535
H          -0.24019620494565   -0.61117248773272   -2.02574026452482
N           0.83890670782931    0.71086911596178    1.09730505115813
H          -0.09046012383214    0.28627071998918    1.28664538245490
H           1.52693773656794   -0.11532938217292    1.13941282232909
H           0.85413479520556    1.11559365801071    0.12206314571248
H           1.04749567605352    1.43104498395018    1.78180429453289
