    26
        -50.46627155  Gyration_radius:  2.44591296324 Dipole_moment: 6.905
 S          -1.16549088888033    1.60277027251790   -0.18768390777938
O          -2.46632637263283    1.16544207679955   -0.60499411664368
O          -0.73215801349029    1.02248676190764    1.08859389702506
O          -0.11172738188042    1.44586390523528   -1.17953911155907
O          -1.29300724878278    3.16247526510367    0.07340689847682
H          -2.23361224252912    3.26824998316047   -0.01378735340520
O           1.22485861066233   -2.14482901289017    0.49108806634154
H           1.67652703429239   -2.95869994659358    0.26694426414433
O          -2.42922067564274   -1.54776072467389   -0.87623075893939
H          -2.27119688428000   -1.76511450015310    0.06176160254043
H          -2.64724502375454   -0.60058297974149   -0.87837389364074
O           2.48723377134430    1.63748715619046   -0.98179370010060
H           2.81927352220642    1.17079111518180   -1.75166790904151
H           1.51878992236974    1.74153391168359   -1.13576069884530
O          -1.35449022859591   -1.59733436743974    1.64329491278965
H          -0.48993648143908   -1.96414588006838    1.41636465228732
H          -1.26086850154399   -0.63358626239643    1.57549838061558
O           0.07601057998500   -1.21111174507767   -1.60502676645813
H           0.77975953938987   -1.82513648938243   -0.36206188538201
H          -0.87112660963052   -1.48277226692507   -1.48854761683322
H           0.04546336468427   -0.23855866985724   -1.57276698787944
N           1.76749686311026    0.34968123378478    1.22504848998528
H           2.23390495772201    0.83957447086258    0.41709098857671
H           0.74991646219304    0.68632310978419    1.22984555275487
H           1.72865462789175   -0.68123259267808    1.04043101727032
H           2.21851727722984    0.55818615563751    2.10886598369109
