    26
        -50.45156347  Gyration_radius:  2.67175338216 Dipole_moment: 4.839
 S          -0.11636635960113   -0.83015019521036    0.43456327840817
O           0.23526100060234    0.03698648857396   -0.78302843935572
O          -0.08897875212108   -2.21298158511289    0.04694417636842
O           1.02870804426634   -0.52620957907054    1.39540503206829
O          -1.36399764464668   -0.38478129385796    1.00627311695602
O          -2.84844709625358   -1.62399467497314   -0.84997547861572
H          -2.50065657761448   -1.12158648452712   -0.09147415285560
H          -2.58401162123280   -2.53546499070467   -0.70066807522409
O           0.10249585503143   -3.09178069427232   -2.47129730817222
H           0.05516544768601   -2.92014559835725   -1.50972380300946
H           1.01617186887627   -3.30731689761227   -2.66300999798192
O           0.54553434913446    3.37833022630513    1.92628593309956
H           1.11731911399778    3.01433577479461    1.20015358522636
H           1.11430848188844    3.90718584309769    2.48814694546721
O          -0.14320671083138    1.04215138464608    2.93142857060174
H           0.04756437259411    1.96526276310958    2.61487490670563
H          -0.98317020212893    0.78064088830264    2.52653235485169
H           0.64419563216083    0.13767397279392    2.11004081370068
O          -1.14860558956400   -0.74762261017876   -2.67652135453521
H          -0.35539341910250   -0.23688390077810   -1.64531425076361
H          -0.70693097278666   -1.60379059798399   -2.87355492851085
H          -1.96222197954370   -0.99666555309548   -2.17377838441788
N           2.10108384763269    2.14951903460275    0.11237602630642
H           1.43846527204616    1.49225360397820   -0.29109498442048
H           2.80444097325432    1.59687334365774    0.58826917485945
H           2.55127264627640    2.63816131181471   -0.65185274674013
