    26
        -50.46627160  Gyration_radius:  2.44592812972 Dipole_moment: 6.883
 S           1.21197609304649    0.29890668996978   -1.55332933586231
O           1.80543419653441    1.59712434397506   -1.41065964835151
O           1.48943931610940   -0.60200044769581   -0.42907831253542
O          -0.21579592911605    0.30077995183206   -1.83817771018188
O           1.91107806184175   -0.36330710824543   -2.81418919655398
H           2.57101195026112    0.29487232090879   -3.00078731646733
O          -1.22053000381912   -0.33756638328559    2.17727863917817
H          -1.92052392796019   -0.18628849815434    2.81264135017164
O           0.84817993676655    2.75472968369584    0.86521757772321
H           1.23452465500168    2.12148767797298    1.49916137945539
H           1.27776765411005    2.55051243061212    0.01760787038437
O           1.55308353346024    0.42431155413275    2.12118424669522
H           0.66779185853176    0.13306663044101    2.37597646378629
H           1.71374917080468    0.04849759299697    1.24080182616852
O          -1.99511744172746   -1.61317125691722   -1.79729398438445
H          -2.83439039297236   -1.15427198654430   -1.72117748427962
H          -1.33178441421930   -0.91362613860390   -2.00501833923142
O          -1.36165817954602    1.43363205478776    0.32508219074493
H          -0.66305070796449    2.08954422620860    0.58228975863506
H          -1.04323304279027    1.07341550044717   -0.52158934740056
H          -1.31171520746881    0.39086433025684    1.47808834955552
N          -0.48558804982042   -2.09997742550983    0.33070593685007
H          -1.18458161822735   -2.06263553369282   -0.45722131379946
H          -0.85562324953099   -1.57374252927617    1.15780045463826
H          -0.23264245463575   -3.05195975691924    0.57098959773438
H           0.37219818335363   -1.55319793339600   -0.00630364272257
