    26
        -50.46810523  Gyration_radius:  2.48108439822 Dipole_moment: 3.444
 S          -0.72640923951171   -1.62641918889076    0.66765644201379
O           0.33477698302817   -1.33853844642531    1.62560939499407
O          -2.00758664560348   -1.08186562324835    1.06481483888695
O          -0.33119709017653   -1.24726524503354   -0.67578423925715
O          -0.90953670016115   -3.20170623345355    0.64206635539678
H          -1.52309943080991   -3.36057601056257    1.35249199174994
O           2.55118873148719    0.08210961305878   -1.99218109926648
H           2.86705886823411   -0.80908404705856   -2.15124685610742
O          -1.81754490629018    0.95068032229513   -0.95901576845845
H          -1.33419476319167    0.10770329152901   -0.85337142559390
H          -2.63020537965116    0.82712440764359   -0.46274458165684
O          -1.11743465230596    0.83638771528449    2.67267713786500
H          -1.61246237611308    0.18861867279134    2.13299295904099
H          -0.39147188279507    0.32410548987117    3.03890387271417
O          -0.14971860891716    2.32123999917869    0.65980540688244
H          -0.54988876943411    1.99250926719163    1.49470094669525
H          -0.77000719395022    2.02917172194798   -0.03962871720220
O           0.13263991963111   -0.04277330331053   -3.06635016530634
H          -0.46591841534504    0.69562735390912   -2.91885388252025
H           1.70514488256070    0.15281236415443   -2.49880578894949
H          -0.08821914753807   -0.68539197856353   -2.37327174131508
N           1.78773947013384    0.57484056456868    0.53000829274398
H           1.06651578557936    1.37603365529229    0.52874456414533
H           1.29665620854092   -0.26097449475462    0.94307759880645
H           2.09165632254076    0.36722604589817   -0.45758073383032
H           2.59151803002343    0.82840409667617    1.09528520751462
