    26
        -50.47190996  Gyration_radius:  2.46931148743 Dipole_moment: 1.483
 S          -1.48094532041967   -1.21414800738736    0.54234443662755
O          -0.56560665143477   -0.77407022528971    1.57854431689205
O          -2.81538802780244   -0.67907204145325    0.65414484136721
O          -0.90086873263490   -1.04561092298931   -0.78490925831483
O          -1.63808100963856   -2.78858230189165    0.75865225787162
H          -2.57259501613907   -2.92740311435470    0.64435069536984
O           0.19089409485570    2.65593606767009   -0.42092865522797
H          -0.75388829089958    2.48808253433248   -0.23386267490743
O           2.76493551056313   -0.36412788253420   -0.57129385544073
H           2.38629850005454   -1.25061470235148   -0.39049569803187
H           2.26085761661331   -0.02785515832839   -1.33014951313018
O           1.19678177122557   -2.46957342170460    0.01498159671342
H           0.40721938693056   -2.04987056855994   -0.37311496038527
H           0.94633412804413   -2.66719431343983    0.91952352754894
O          -2.32181752471374    1.86766154051068    0.15702334294898
H          -2.93616691433681    2.33726004063398    0.72403986999453
H          -2.51699359638789    0.91593176166659    0.28153304966323
O           0.66923627635873    0.57460597216085   -2.15331439673264
H           0.38828784400507    2.12140841199636   -1.20974624605451
H           0.05529345082048   -0.00745116041896   -1.65103728610035
H           0.42731268961667    0.47408979060520   -3.07492914753710
N           1.37633627038681    0.97763171351526    1.21071909368850
H           0.94120192297489    1.77104999906787    0.64369814614210
H           0.60700246079549    0.29353992803475    1.42823341042835
H           2.07128023079455    0.47531412429063    0.57489832017927
H           1.81307892046625    1.31306194606523    2.06109478636726
