    26
        -50.47027099  Gyration_radius:  2.49070083057 Dipole_moment: 3.345
 S           0.24797345347556   -1.75189059693764    1.03587782925422
O          -0.28923024848564   -1.96861747384477   -0.29916528388716
O           1.65367229400322   -1.36904485473823    0.98826315218243
O          -0.54979033110081   -0.85311981359926    1.84217623596406
O           0.19466892627969   -3.15794062550720    1.76320550628135
H           0.72365291099739   -3.70213925052932    1.18925404625714
O           2.17398140619566    1.28782501578985   -2.05147429977672
H           2.79585743685521    0.69860532426694   -2.48112631187542
O          -2.20829335559084    1.28012553441126   -0.75951676599154
H          -2.50037306012860    0.40670199114419   -0.37929091022144
H          -2.99680049241464    1.70995448764864   -1.09209538221292
O          -0.47974445319897    1.76569130797987    1.31064853728064
H          -0.58680779866237    0.86759147047561    1.68342519030213
H          -1.09318523788305    1.79473772742399    0.55423218188677
O          -2.71686071549752   -1.07556056671574    0.29799987232853
H          -2.30996065216701   -0.95531459567045    1.16972650767152
H          -2.03349732744536   -1.58382559420199   -0.17424841189918
O          -0.11988885591421    0.03781885186466   -2.09190530606325
H           1.27999874808833    0.86579067669481   -2.16951252486688
H          -0.11502313086724   -0.75606628296647   -1.52416493644627
H          -0.85596978600929    0.58106759272764   -1.76573570714537
N           1.97885953942476    1.19339243569066    0.59537226425548
H           2.14771097899106    1.32391770874150   -0.43817644241212
H           1.92741199301987    0.15088360382727    0.78942296058562
H           2.71032606891948    1.62594350410168    1.14828664770172
H           1.02131168910979    1.58347241182181    0.85852138080224
