    26
        -50.46489352  Gyration_radius:  2.55386076781 Dipole_moment: 4.634
 S           0.71314546499825   -0.20753951318239    0.36346560492990
O           1.15458684659091   -1.06995071121247    1.54616161445043
O          -0.04818628735614   -1.03186720150950   -0.57553501000155
O          -0.14150001739023    0.88372957226476    0.88461332782004
O           1.89389438640092    0.35704413522333   -0.25842920366328
O          -2.22556713495479   -2.16381363647063    0.38925470662019
H          -2.26909450039799   -3.03511720730601   -0.00817646753814
H          -1.46793842589629   -1.70701641892124   -0.03819450921852
O           2.40085705739097    0.17012200112115   -2.83987344919255
H           2.31551835965628    0.21705331867779   -1.86034088228214
H           2.89799977628008   -0.62873447902384   -3.02035225009270
O          -1.32879078491315    0.74890787547746    3.27515754638659
H          -0.67015338638654    1.09240003373133    3.88123991350341
H          -0.96913668815903    0.88476297451600    2.37495443710381
O          -0.25736646213442    0.37491413607597   -2.78830507725271
H          -0.32584589524953   -0.26931826586868   -2.04594375409181
H          -0.07035697031878    1.60570819730252   -1.96870586658311
H           0.65817769812661    0.25207840769899   -3.11833706180961
O          -0.94044254327486   -1.84911329312039    2.70887285809150
H          -1.24873171311269   -0.99576314117078    3.08091329076864
H          -1.54895370782944   -2.04508097229281    1.96184985286352
H           0.32063722500774   -1.43945297419011    2.03923882307296
N           0.21182142876632    2.33878399530012   -1.19696118265481
H           1.22470231346587    2.44573805711463   -1.22732901679932
H          -0.01205543967486    1.84305324131208   -0.26477285710508
H          -0.26722058964797    3.22847186842466   -1.29446536732186
