    26
        -50.46846774  Gyration_radius:  2.39951703729 Dipole_moment: 5.639
 S           0.87436403200209   -0.75816078544248    1.40475872741903
O          -0.34373822523127    0.02314359608500    1.73001830144272
O           1.24185728948252   -0.51155407644575    0.01504367751975
O           1.95110538065547   -0.47574920390877    2.31491570575565
O           0.47773420827298   -2.26030391765258    1.52821998796505
H          -0.15489068978201   -2.43530923682962    0.79057961501539
O          -1.04184328469313    1.37872193502043   -1.80029644680384
H          -1.18061642550253    1.82465530503619   -2.63666465817994
O          -1.36027393410703   -2.59804026525082   -0.36890972692181
H          -1.86642427980676   -1.74989258894726   -0.22313872396427
H          -1.93534898294531   -3.31006564194941   -0.08329204163408
O           2.85884861029490    1.52138218762420    0.83101560132618
H           2.65489847168322    0.84691391120914    1.52024012277051
H           3.12414417414132    0.99394357705313    0.07147448557496
O          -2.41534266865921   -0.25958527698778    0.11688238242665
H          -2.17174662150700    0.37113378684796   -0.57450083010530
H          -1.75755186581580   -0.12840334181303    0.83445715779147
O           0.01995957741930   -0.95228599491871   -2.24111444633811
H           0.61801022446745   -0.84702210284643   -1.46636250435896
H          -0.54042597232950   -1.69819999637123   -1.99719157526396
H          -0.63844660868887    0.48771909238412   -2.02727622192917
N           0.31292546376986    2.14647689410632    0.43961086800265
H          -0.04500306964637    1.34731271632512    1.06316518599845
H          -0.08182573506637    1.96752371548929   -0.50828038289109
H           0.03156619688935    3.05423602197085    0.79519922435621
H           1.36806475441900    2.02140966022808    0.47144651508682
