    26
        -50.46836774  Gyration_radius:  2.48069974584 Dipole_moment: 2.821
 S          -1.60484275334402   -1.51063117269247   -0.45674102580020
O          -0.53025707611617   -1.69166721173401   -1.40596563548406
O          -1.45677962057488   -2.31389582658918    0.73888994294225
O          -1.84071656943772   -0.09409353463839   -0.17460971421271
O          -2.94129767125796   -2.00627781406128   -1.15832763466829
H          -2.83035058768793   -2.95019254922680   -1.12370974120163
O           0.86479761892021    2.46351391557783    0.86184230133175
H           0.97237930672811    3.27594038651893    1.35660473728835
O           0.74656851146335   -1.47990955013008    1.81018706470708
H           1.13395005716148   -2.20494714912969    2.30348920833912
H          -0.07061824569462   -1.84354097688227    1.38413504383822
O           2.39372832896720    0.12480905684726    0.26400663685267
H           1.87501312103667   -0.50697711793954    0.79066941255816
H           2.07268533328460    1.00123829881613    0.51577815479124
O           1.48606006190345   -0.16854700277316   -2.22667926467418
H           2.02925545197979   -0.14412906467437   -1.40490512325836
H           0.85836894935520   -0.90460110149559   -2.08394562752519
O          -0.72395095593100    0.82212620144089    2.09681496144822
H           0.25313558572804    1.88015518907897    1.40316970870441
H          -1.30573232829208    0.51698534893094    1.37431472473603
H          -0.16689850696237    0.05210318190575    2.29432670531222
N          -0.25334435273665    1.56660372398528   -1.44777282480786
H           0.18672300602564    2.10528603638936   -0.67712688094746
H           0.50601902296135    0.91845125473523   -1.89378623078083
H          -0.96515944698040    0.91606656679525   -1.01065946046962
H          -0.68873622050195    2.17613092091721   -2.12999943901242
