    26
        -50.46130691  Gyration_radius:  2.45982398112 Dipole_moment: 4.241
 S           0.59416516332550   -2.00022739578729    0.64141095860447
O           0.60458383193985   -1.37681446802809    1.94460734166536
O          -0.72359846134102   -2.27494523993120    0.11482939206243
O           1.40885977270826   -1.21903261882531   -0.30431686520206
O           1.31863906436343   -3.40032503953984    0.79030437027505
H           1.04394467507234   -3.88457197236947    0.01708625159015
O          -1.33603968106489    1.41520518271274    0.44064165436673
H          -1.72247606753487    0.88477807702634    1.17606131201899
O           0.83668494654536    0.30186958014511   -2.51042853542885
H           1.19671178426465   -0.32927833733517   -1.86729753438749
H           0.93247292898618    1.18013755218673   -2.11361669394757
O           0.55974821137535    2.82197315793801   -1.17918267696425
H          -0.29050874409825    2.62980642831505   -0.75922659205521
H           0.37939546735514    3.43712429710572   -1.89193307061612
O          -1.92853011856039   -0.55366087542835    2.10842359698818
H          -1.01564365522489   -0.88168112884536    2.22414615214245
H          -2.33942799863512   -1.20034919093967    1.52717132906788
O          -1.59320782436977   -0.28909165620065   -1.48869406408318
H          -1.51740168050608    0.83407860300496   -0.35958316747855
H          -0.82826715280356   -0.12743211471544   -2.07805880971830
H          -1.37250184181029   -1.09930970499729   -0.99149771198466
N           1.18703578960015    1.04928158258481    0.92423339514733
H           1.73271605976859    1.83769197611323    0.58317181985857
H           1.34836707683370    0.84478434529428    1.90786214740384
H           0.12266520892574    1.24626710532734    0.75844465230036
H           1.40161323488608    0.15372186518965    0.38544135837352
