    26
        -50.46846770  Gyration_radius:  2.39949188267 Dipole_moment: 5.640
 S          -0.55227820641557    1.37885897757415   -1.05179438539270
O          -1.57079217327011    0.35244331680887   -0.72145546618181
O           0.76340401131067    0.88995890895180   -0.65502274085671
O          -0.60169012903298    1.75629097502789   -2.43831917037828
O          -0.87967059786565    2.62110934635256   -0.16935058277219
H          -0.69124588764869    2.34996458443520    0.76124548523851
O           0.75227503703598   -2.10442285593452    1.11011721159253
H           1.31881888079294   -2.78885159913195    1.46815505758434
O          -1.58680081430877   -0.56708825134499    1.75413994415968
H          -0.90010606070504   -1.24408491995642    1.68176981330450
H          -1.74340065171701   -0.25382911560577    0.83647439012580
O           1.10536875385094   -0.13919236768044   -3.15218475739385
H           0.44517109194543    0.58970560477486   -3.08724361713510
H           1.87091175783255    0.20827524929305   -2.68453047572281
O          -0.52695108530723    1.75054060466035    2.32244305907208
H          -0.96406889521602    0.85878712296363    2.22004149977663
H          -1.09986264132782    2.27040994895566    2.88880367086094
O           1.78023725014609    0.22164216820409    1.64635946974024
H           1.18935588728196   -1.23263235735875    1.34905722272793
H           1.54214668110022    0.55395016688714    0.75090073386969
H           1.24936936936923    0.76508038259372    2.24030112163154
N          -0.17321093943808   -1.68740616158636   -1.42157192828822
H           0.45753772759017   -1.20287724833106   -2.12675071712359
H          -0.87596863007447   -0.91844524951270   -1.15601766915296
H          -0.63597875082828   -2.49541506129702   -1.82475935321543
H           0.32742903492162   -1.93277218978955   -0.54080785600660
