    26
        -50.45156375  Gyration_radius:  2.67128900731 Dipole_moment: 4.837
 S           0.37497589144484   -0.74880339952408    0.43626945424608
O           0.44379395479885    0.45901627506667   -0.50956964214862
O           0.19199130647897   -0.08820436253096    1.79906203111895
O          -0.78412857433669   -1.54856459555560    0.12240945569825
O           1.62597322966440   -1.45279107078634    0.38703199972012
O           0.38790247896591   -2.71705451900569   -1.98620678297767
H           1.13023567658720   -3.14685183790814   -1.55346944770903
H          -0.20176904877699   -2.42440048608973   -1.26838849358681
O          -3.24697354436834    1.81714060566481    1.25027786772723
H          -2.37241070149638    2.24417106857097    1.05185062022669
H          -3.66813251161919    2.34968995585694    1.92696596610477
O           3.57065776716869   -0.99037987110326   -1.38939285630994
H           2.96416131841859   -1.24989866763983   -0.66756131117876
H           4.23138323926418   -0.41884686746987   -0.99579476768196
O          -2.24880867067205   -0.46780344751877    2.10259306141048
H          -0.82240498598350   -0.19298999326484    2.04181149046283
H          -2.71745975916521    0.34961111690754    1.78497302160373
H          -2.22749854513342   -1.08114479586252    1.35344903186417
O           1.32773471844704   -0.34317804010886   -2.67569679783757
H           2.26898129490332   -0.49484815187504   -2.43540466729918
H           0.92277208794336   -1.24469696644032   -2.67752782334146
H           0.79981770964296    0.17336847465196   -1.48865645957096
N          -0.76166285457794    2.77168612398095    0.88530919264661
H          -0.25879715391430    2.74295726250900    1.76449361814331
H          -0.56596661787636    3.66083706622163    0.44193360140325
H          -0.36436769580386    2.04197912324161    0.29923863722711
