    26
        -50.47214169  Gyration_radius:  2.4183565996 Dipole_moment: 3.338
 S           0.19659180696852   -1.79496224443704    0.52234310601311
O          -1.24445746262677   -1.68816344200563    0.67213373202934
O           0.62314849896143   -1.49121934410429   -0.83588851407959
O           0.93351360436757   -1.03307328237217    1.50977490378815
O           0.55822959163806   -3.31111418278989    0.77776105039246
H          -0.02510953946308   -3.75698512421136    0.17313415509623
O           2.28191132158447    0.24428543551917   -2.03351925921401
H           1.82949482041731   -0.56951698281758   -1.74066731479101
O          -0.25702614881009    2.31387651734984    0.25669485897446
H          -0.77148855180260    1.84708945619593    0.94829816860679
H          -0.50125589476774    1.85775509469538   -0.58518409905815
O          -3.08418775292537   -0.18901128942792   -0.67814636079892
H          -2.55028936294288   -0.87406649815651   -0.24074376727484
H          -3.36973514547947    0.40024800163445    0.02408320329803
O          -1.36774975795335    0.59952490142415    2.02359888982465
H          -0.76183165460354    0.47288771705918    2.75627460977667
H          -1.37831374950567   -0.26134055446831    1.55918633083428
O          -0.74279100165891    0.65427432425196   -1.75581599527148
H          -0.28982747831474   -0.16306474246534   -1.47823617814041
H          -1.68962926338284    0.45999983641747   -1.61850283130482
H           1.62523944688350    0.71377647761361   -2.55807413336403
N           2.02997078847966    1.12713847172356    0.47232009421092
H           1.71464091335083    0.23997629613817    0.94394371462992
H           2.29865117374926    0.88031514295138   -0.51528941943790
H           1.14794774550981    1.75841904013666    0.42538435449807
H           2.79435306224039    1.56295097399411    0.97513669073386
