    26
        -50.46303818  Gyration_radius:  2.72420244635 Dipole_moment: 3.418
 S           1.38224768531859   -2.10790157514516   -0.04061267882922
O           0.21246967321609   -2.06267490948070    0.84087269490307
O           1.01177862004615   -2.36907407979931   -1.41911159227232
O           2.22145195427443   -0.94294839746087    0.13713885797860
O           2.24737398080775   -3.35511248836297    0.42793333927208
H           1.78394493874127   -4.11361713357946    0.08391110387826
O          -0.58710093654437    1.06334736365929   -1.16512592198765
H          -1.07434770854353    0.21593697126503   -1.31096282307785
O          -1.46222996319860   -1.42971595273153   -1.30061762859646
H          -0.59962301355325   -1.83541433203158   -1.52749015048219
H          -1.62482442796799   -1.73716773899802   -0.40363668016802
O          -1.98303842373779    2.98712184654253    0.20625234105093
H          -1.75078444975013    3.85184666132675   -0.13503544547501
H          -1.58536950605032    2.33686084681596   -0.40067151380103
O          -1.36185634967091    2.11058394565448    2.67962156707077
H          -1.64367527785282    2.53713330532880    1.84128796335903
H          -2.16391117314463    1.81931795002513    3.11548970208722
O           1.71000317026300    0.25567992865004   -2.18334275314136
H           1.49392296961975   -0.54223026737086   -2.67662688469000
H           0.25421660582747    0.94708618601114   -1.67212236409561
H           2.07951684105129   -0.08699187245639   -1.34516979530976
N           0.28720015123465    0.50472018277775    1.28045709177877
H          -0.25496616939354    1.01927116882636    2.00799780188552
H          -0.04212609338408    0.82238344130658    0.31957017884856
H           1.29248464229154    0.65659230198763    1.34767350783228
H           0.15724230009304   -0.54503334277380    1.29232007200408
