    26
        -50.46303735  Gyration_radius:  2.72365541338 Dipole_moment: 3.449
 S          -1.83093279337588   -0.15373699601969   -1.72555485533960
O          -1.66601684276298    1.24427358106782   -2.07732090865881
O          -0.60255383803482   -0.92168949545276   -1.94695146875410
O          -2.35692409250317   -0.37231534219414   -0.39582294167047
O          -2.91087641628378   -0.73934264059228   -2.73260987224973
H          -2.65919439755044   -0.39380102082215   -3.58437041433671
O           0.69523271875436    1.24664422512953    0.89003387668839
H           0.95760890040268    1.41065955729053   -0.04861229960770
O           2.07487108907525   -2.47050301337807    1.75000140037093
H           2.36368475028290   -1.59655036540700    2.09216172743615
H           2.82507586576936   -2.83537410191184    1.27869902972240
O           2.63475505146661    0.07580406753909    2.43789217775070
H           2.58068343489310    0.42038510106299    3.33035127874421
H           2.03560472308844    0.62113905466481    1.89662111750157
O           0.95683891682027    1.38513975742966   -1.73900165678586
H           1.13171648966865    0.49824560962288   -2.06794444297517
H           0.00587670189926    1.51782956855657   -1.93477637429440
O          -1.81358985689689    2.02308121296925    0.62969049735134
H          -2.16840589525216    1.14370255854251    0.39063713560103
H          -0.19541055889293    1.66982711179847    0.96797063847281
H          -1.83575779496479    2.50797520509651   -0.20162419494163
N          -0.03780755808835   -1.28641570052192    0.57091830931686
H           0.68032049050126   -1.94217234136489    0.94829560093917
H           0.25800239853758   -0.28895114853262    0.79548568235227
H          -0.15526110979835   -1.31779332943796   -0.47995766776305
H          -0.96754040674907   -1.44606113516906    0.95578862510119
