    26
        -50.46837044  Gyration_radius:  2.47985309307 Dipole_moment: 2.829
 S           1.91301546618591    0.72554904401115   -0.93499235150642
O           2.23587329108541   -0.21450478131151    0.11362905336515
O           1.75609899056306    0.10669661266721   -2.23484482261804
O           0.78417700645001    1.57912219115763   -0.56094614624576
O           3.14162772677782    1.72371810016275   -1.07266747371491
H           3.75301528576673    1.19774758204432   -1.57668600317257
O          -2.60947711216239    0.33271572330695    0.80532659209927
H          -3.53462628474024    0.57647450816732    0.83854870224826
O           0.94092016130630   -1.15524943175250    2.23384153621076
H           0.25520483735714   -1.70090028297524    1.78316755145607
H           1.60507816708577   -0.97545351872645    1.53913158991414
O          -1.04763254516035   -2.05768505723224    0.70334673197040
H          -1.73329710727504   -1.38433163745037    0.80852254889388
H          -0.71445714017613   -1.95463690032352   -0.20441327590366
O          -0.21465603869477   -1.53619955294641   -1.88852474314336
H           0.57231228543472   -0.94945277507572   -2.01985777758738
H          -0.09419616783789   -2.27894770027895   -2.48266985820097
O          -1.60164878425673    0.80977907861528   -1.54029055436064
H          -0.75775531693995    1.24651972372093   -1.31502974436568
H          -1.33594592026803   -0.06320502942937   -1.87073390370548
H          -2.29634781167650    0.53264576035052   -0.12699597394803
N          -0.21270426471098    1.11294323231177    1.82409738404039
H          -1.21056893944082    0.90857050856542    1.62381966297893
H           0.27350309394629    0.18570597656085    2.13981759937002
H           0.24436717285709    1.37917300972133    0.90691565458309
H          -0.11188006147656    1.85320562613880    2.50848804134228
