    26
        -50.44849461  Gyration_radius:  2.4858986477 Dipole_moment: 4.239
 S          -0.39850433923224   -1.37576354778679   -1.34952164455886
O          -0.55355945669900    0.06481288798211   -1.38487448073114
O           0.40848002192835   -1.94190362015986   -2.39134948867007
O           0.02590301698379   -1.81707774304070   -0.00788173156189
O          -1.86175293883664   -1.96917303962512   -1.54484216096221
H          -1.69670844222839   -2.75719083368119   -2.05215890497494
O           0.69550298514306    1.86877871355776    1.36482805711809
H           1.38326022544880    2.18262576682746    1.95329224296078
O          -2.81460793004175    0.32280157953356    1.79633887887002
H          -3.21171409992953    0.82953659665445    2.50648459254334
O          -1.85992053753610    1.93901289768936   -0.00470939729577
H          -1.51381795935822    1.29345569417223   -0.65175670158261
H          -2.62503302719825    0.96275763145874    1.05363766218990
H          -1.07515561570709    2.31644328197909    0.41116332266686
O           1.72282614584800    1.38203068022075   -0.91388250211617
H           2.28535866607072    0.56951716107603   -0.87065636831126
H           0.90107007894210    1.05666384142704   -1.32440077982621
H           1.14216312565668    1.72259453128658    0.45790323543577
O          -0.37325835007217   -0.38499008494402    1.93504256976770
H          -0.20177413943790   -1.03736206225786    1.07497765967241
H           0.08166415219469    0.50836414284105    1.72245978374439
H          -1.38057297067031   -0.19520386065850    1.94811056659138
N           2.72444502935865   -1.10474297284177   -0.89776544794774
H           2.02372148241726   -1.43374624870072   -1.56056151836908
H           2.54047498067966   -1.59950723351517   -0.03293218422886
H           3.63150989627889   -1.40273416949588   -1.23694527042726
