    26
        -50.44849464  Gyration_radius:  2.48566272266 Dipole_moment: 4.239
 S          -0.84283148695358    0.92060943329545   -1.52137793148252
O          -1.81032952645928    0.47624004117070   -2.48236963309668
O          -1.24171561948380    0.81820506314320   -0.13178444391391
O           0.47907530372237    0.30020669179047   -1.72678933754475
O          -0.62544648860261    2.47355948151126   -1.79079872841816
H          -0.92190487284472    2.56890092638132   -2.69002142867680
O           2.08180976937100    2.25210216260107    1.35801496729407
H           2.68320484544773    2.38880519510836    2.09178292201595
O           0.67547773603902   -1.29723508147211    1.92371191667473
H           1.03577495524999   -2.14088585916552    2.19981153055960
O           2.00162608433890    0.00462053977564    0.16530693767931
H           1.48342256741297   -0.54447620856986    0.85846414465382
H           1.33382878780623    0.14376841719158   -0.68843648921900
H           2.12925840093837    0.93470884636266    0.57704936065379
O          -1.52426790159230   -1.70242193627762    0.70663933143524
H          -1.69093681712318   -0.76662332628403    0.49159866247390
H          -1.35677576702996   -2.10655523935313   -0.18051856574883
H          -0.21910982154657   -1.50312404553604    1.47547153941324
O          -0.22185976389054    1.44127710770902    2.25427995293941
H          -0.71832951374050    1.36369139317797    1.41595191397504
H          -0.05903059489168    0.53091140257882    2.52984772607484
H           1.17265317219660    2.11852319182008    1.74871075857257
N          -1.00338268267230   -2.22100337328160   -1.87167265453585
H          -1.42784592273145   -1.34575058115197   -2.17545558737205
H          -1.39347588558051   -2.96431362152924   -2.43906313777791
H          -0.01888896738066   -2.14374061099647   -2.09835371662771
