    26
        -50.44849473  Gyration_radius:  2.4858189348 Dipole_moment: 4.252
 S          -0.02668302789970   -1.79125952047132   -0.81919546173162
O           0.69656652328455   -1.27966601401787    0.32782868941971
O          -0.86091393153323   -2.93177267893305   -0.57295761023461
O          -0.75125915842637   -0.70255203547278   -1.50086034191629
O           1.08766094861677   -2.26589780797949   -1.85060862572310
H           0.67986165051717   -3.02218474097926   -2.25962657509994
O           2.45666952691038    1.66053847848409   -1.56752664083347
H           2.93329046007259    2.49216044184612   -1.56965348519943
O          -0.04333924513983    2.00156576075188    1.35158102768728
H          -0.61209237327866    2.69563411599300    1.68715018489538
O           2.46946674803888    0.65102163286920    0.83008700363978
H           1.97429019499001   -0.17719405100542    0.67485003815004
H           2.63605826549440    1.22518776437091   -0.68699708354885
H           1.86052772227459    1.21351474493788    1.32409339291764
O          -0.89205574957928   -0.24117588929692    2.20807174092739
H          -0.22797895794164   -0.78140252741133    1.74236139792692
H          -0.39577018802288    1.12858604663755    1.74822092279959
H          -1.73477298654636   -0.48413851397100    1.75069302039420
O          -0.05882251038530    1.62168851742043   -1.17847212097694
H          -0.36839534246263    0.58580145108142   -1.33784440971827
H          -0.08286374965100    1.78512285589139   -0.16690238920061
H           0.92876120499528    1.66444698816485   -1.44970484143380
N          -2.80312483245176   -1.12381495930574    0.54754092106511
H          -2.94010964881116   -0.52173889493414   -0.25578519072391
H          -3.70510387405072   -1.50905191234731    0.80185377626016
H          -2.21986769897838   -1.89341924231612    0.22180267025416
