    26
        -50.44849468  Gyration_radius:  2.48567692268 Dipole_moment: 4.238
 S           0.87739700086482   -1.70508244464516   -0.44543207784497
O           1.29671312892127   -2.25496058157936   -1.70193264566212
O           1.43020057234602   -0.40858700624773   -0.10849018013544
O          -0.59025179184920   -1.69513968066287   -0.29905625714538
O           1.40527542232630   -2.70040888952865    0.67776824835548
H           1.52311627290868   -3.51168231296560    0.19461334920478
O          -0.83735516767548    2.25087517035880    0.26284484550256
H          -1.50351067371120    2.86930281977014   -0.03980005093481
O          -0.40759760516410   -0.05424895921885    3.32845782803218
H          -0.71226736989616    0.47473568742826    4.06746936864131
O           0.59906566583794    1.55351707472653   -1.72152099019740
H           1.15870080125528    0.93131183323056   -1.22241456003448
H           0.08673274405548    0.95742565824558   -2.32194810147959
H          -0.26443572648075    2.02841336109307   -0.55273702256636
O          -1.66674853303872   -0.01533421130384    1.11583637839221
H          -1.36109238043157    0.89362715171212    0.75547873379836
H          -1.19331722551869   -0.77812013996084    0.48994730529041
H          -1.24216515942474   -0.11052322398091    2.04375775884728
O           1.32663953134306    1.29951670099233    1.93989065470640
H           0.79400693941779    1.96265510305128    1.48396198847840
H           0.37512934778250    0.42310882490867    2.93287214097214
H           1.55048461167183    0.64270871456254    1.25167033918303
N          -0.59790456370502   -0.49486548990480   -2.97091572507480
H           0.13441689383886   -1.14599936656352   -2.69116487253806
H          -0.74169585889937   -0.60478070751545   -3.96784856997707
H          -1.43953689678020   -0.80746507600535   -2.50130789581264
