    26
        -50.44991608  Gyration_radius:  2.48949822813 Dipole_moment: 0.427
 S           0.56971642951879   -0.66111523017916   -1.78957042047925
O           1.88905181503004   -0.48023414606277   -1.16391168391955
O          -0.04828145295289   -1.89471398518640   -1.36147350881774
O          -0.25757229028192    0.51209080741499   -1.62450850893992
O           0.84931240626869   -0.80931765951167   -3.33797391545302
H           1.16175883723171   -1.70689668664913   -3.36961389544280
O           2.64556388270695    1.81597676480746    1.15227566338287
H           3.09693694447038    1.92828997554136    0.31246278536043
O          -0.27685738390669   -0.42055282593035    2.16130146903936
H          -0.43277924110665   -0.75726742509352    3.04482232732126
O           2.10072741071504   -0.64073949274497    1.27869573295475
H           1.14461707097200   -0.62331324178261    1.66149619473792
H           2.00592151704891   -0.70291925890504    0.21767281705726
H           2.44486709133712    0.33915113064185    1.36927954140475
O          -1.83293792519116   -1.63330838818784    0.58814965015748
H          -2.40725047104690   -0.92613007722138    0.20429936303852
H          -1.22693692078661   -1.87806803430483   -0.14171068998620
H          -0.92732588955583   -0.93077696695785    1.54340407644546
O           0.09235561508391    1.91848586351940    0.62174985388624
H          -0.03346654526911    1.50412877807757   -0.25634121806512
H          -0.27402950023123    1.29144855594393    1.25995218571523
H           1.68708091812811    2.03755816996728    0.97937713409892
N          -2.98050388209107    0.46762224692893   -0.66046897859962
H          -2.10370958878912    0.58768498001469   -1.16668127345316
H          -3.17342084075754    1.33672698844596   -0.17821965530777
H          -3.71283799622416    0.32618916741762   -1.34446502617069
