    26
        -50.44246371  Gyration_radius:  2.62767550815 Dipole_moment: 4.225
 S           0.42797898610789   -1.69531254199035   -1.97732247872165
O          -0.25918683067004   -0.47727083647084   -2.44861238894449
O           1.86005798151516   -1.58823278395846   -2.12212930728172
O          -0.03323709337121   -2.07513386333215   -0.66604515745102
O          -0.03364849663645   -2.84765620210527   -2.97204886695289
H           0.50502167320523   -2.69117269041995   -3.74186743535519
O           0.78757424006769    2.46579442111176   -0.60142748378360
H           1.05457495513810    2.74601202645289   -1.47868589658555
O          -0.28164662657353   -0.14221342583369    1.54196725615332
H          -0.47172923027492    0.62548591389440    2.12723040578163
O           1.96064857680563    0.18206975881076   -0.13654577629053
H           1.39139620172409   -0.23840514174778    0.52261881070571
H           2.04196491664016   -0.45686005931180   -0.87212725992431
H           1.35588937296523    1.67080769070068   -0.38973161426592
O          -1.54921225610040   -2.46728772169469    1.49983566386507
H          -1.12999770304652   -2.42281280836335    0.61760304400275
H          -1.17356791908669   -3.24276752523792    1.92003953529556
H          -0.81757255616990   -0.92691941321458    1.78358562564583
O          -1.18625329075790    0.82825304962007   -0.59866142457491
H          -0.86790493095396    0.21143734753892   -1.42965426807957
H          -0.87327604013182    0.32544052845700    0.26672293883369
H          -0.53909946402278    1.61130772660189   -0.63708711260479
N          -0.56010443177216    2.37763130727765    2.44153461192732
H          -1.47853982480711    2.80238509748350    2.40557930491925
H          -0.02534105996888    2.73397099495199    1.65589350728608
H          -0.10478914981073    2.69144914078341    3.28933577640564
