    26
        -50.44246357  Gyration_radius:  2.62795713831 Dipole_moment: 4.233
 S          -0.20617737502206    1.28351090965687   -2.29745869392946
O          -1.52724573176122    1.07676234051736   -1.67270933451828
O           0.35358555736830    2.56623786246826   -1.94542187741326
O           0.65579119816293    0.15098270184242   -2.07264705129556
O          -0.48697578965419    1.33521319591276   -3.86235083149228
H          -0.82957086305069    2.21513087669922   -3.98795571511574
O          -1.35453815604628    1.20027875490125    1.94817649907549
H          -1.96839563151864    1.92385830315131    1.81042013600277
O           0.98088006987331   -1.08377157439024    0.58036136434039
H           0.86577010174955   -1.49502305045841    1.46668386788685
O           1.59474463814930   -2.32011238843379   -1.67993042220994
H           2.48909205353664   -2.29458357569806   -2.02433426008494
H           1.30609880190599   -1.72955539219160   -0.08206369146049
H           1.17696645643520   -1.49008631670717   -1.98407585146701
O           0.78206010917872    1.72791237232464    0.54558386430921
H           1.17314247462644    0.85729829403040    0.38912718344600
H           0.67294909406001    2.13891030942454   -0.33468645196347
H          -0.49784717975431    1.49089573760628    1.52262256040131
O          -1.44503706456690   -0.59129727927690    0.11495332924236
H          -1.51434418114348    0.07391878444020   -0.73701120625541
H          -0.43117002464309   -0.84426819629351    0.19780825344988
H          -1.57420637218545    0.03741011537850    0.90326737974493
N           0.08197767164213   -1.59174151111282    3.06448182542536
H          -0.37324308413542   -0.68534661760948    3.10242898892972
H           0.70905508197494   -1.65315227063785    3.85672807930162
H          -0.63336185518695   -2.29938239556695    3.17800203565291
