    26
        -50.44246361  Gyration_radius:  2.62785728943 Dipole_moment: 4.234
 S          -1.16650982079581    1.90486402235518    1.40698847881039
O          -2.00120033342626    2.51678062546620    0.40115016493855
O          -1.66400286753577    0.56836082227715    1.78705777604997
O           0.24102005792254    1.86552610886455    1.10125017611931
O          -1.32131648167117    2.79646518473876    2.71531217322487
H          -2.25093912135768    3.00412111593975    2.72152853618831
O           1.41884710735913   -0.18438859327438   -0.65454575527592
H           1.69822806453140   -1.01008722893229   -1.11076684623188
O          -1.75695677675570   -1.70330260266028   -1.03941776894226
H          -2.68823060049821   -1.72181168290428   -0.81204690839993
O           2.83906349866938    1.24107641982355    1.06725663892590
H           3.27667386032403    2.04853081995753    0.79224474220562
H           1.91773209103524    1.50126704798614    1.26600314818232
H           2.15338190478958    0.21653832126975   -0.14336027176708
O          -1.11008184833404    0.79549872888272   -1.42476826048105
H          -1.56850297880964   -0.76280901439085   -1.32113393592556
H          -1.50277769261967    1.47469506414778   -0.84146994029028
H          -0.15799271308997    0.81393339933564   -1.25573791009220
O          -0.21798154540591   -1.22099863096411    0.95477860085097
H          -0.84212488801270   -1.58958239541468    0.24196626891648
H           0.50913967575346   -0.73109225609595    0.37996268144782
H          -0.80988961815887   -0.43747103513706    1.41131456971582
N           1.35411739750659   -2.61554592743079   -1.80446456200708
H           0.34121644143231   -2.57991947897147   -1.85911675492187
H           1.60291420836604   -3.41820873993761   -1.23952554057216
H           1.70617297878268   -2.77244008493289   -2.74045949068008
