    26
        -50.44246358  Gyration_radius:  2.62795341916 Dipole_moment: 4.234
 S          -0.49422815057837   -2.44292264134357   -0.87012799804534
O          -0.74778440649687   -2.18956775747455   -2.26807331110107
O           0.93213871849488   -2.26535219893056   -0.53530028571479
O          -1.33581054476132   -1.72166393706713    0.05062023928143
O          -0.78936886098174   -3.98872689605879   -0.63784543558803
H          -0.42296182932032   -4.39432537367792   -1.41802535721628
O          -0.81906723309886    1.07910464189773    0.79973149798646
H          -0.43895235438105    1.93988638303226    1.08702008978169
O           2.08443194487328    1.10349221931451   -1.22771099479233
H           2.68270150283050    0.62728245712127   -1.80617133293507
O           1.31653862162552   -0.25633624160475    0.80683806639780
H           1.14719299708438   -1.19769461105798    0.29893825875218
H           1.78726195530779    0.30083415143469    0.09873635719935
H           0.37887082562331    0.20848724539300    0.86652268530399
O          -2.33046257306531   -0.55214051266487    2.23801621299112
H          -1.96313022437517   -1.13769650434897    1.54646940658267
H          -1.42762533265503    0.70633003503392    1.47224991809916
H          -3.28062151788826   -0.57729498573832    2.11273462341510
O          -0.34218042516319    0.41629654011070   -1.89855632868788
H          -0.51218182538374   -0.51351984990544   -2.14803435961839
H          -0.85568612246676    0.57712968811972   -1.09491304875992
H           1.16904335021970    0.93825277779822   -1.59415193096067
N           0.85103965815603    3.16998206508991    1.07581634176628
H           0.54781446367852    4.12120689778734    0.90880731677557
H           1.38460543849525    2.87092767156339    0.26580439959664
H           1.47842191422325    3.17802873617738    1.87060496948877
