    26
        -50.44721114  Gyration_radius:  2.51056049941 Dipole_moment: 3.913
 S           0.21903774846881   -1.29674650490758   -1.66855614689804
O          -0.40956556718380   -0.18305503420884   -2.40253539966742
O           1.29352104229547   -0.80161722350424   -0.82157691668400
O          -0.72831418222337   -2.12152625464937   -0.97533265922037
O           0.89687142739599   -2.17424727808777   -2.79314554835194
H           1.36342540065580   -1.50657337512551   -3.28443967241398
O           0.03572287241985    3.25788515820064   -0.96661510670660
H          -0.11628443737387    4.04698622085771   -0.44425323332016
O          -1.52822538639831    0.77749615724775    1.33562277759726
H          -2.29867149481265    0.98310737104178    1.86732844849728
O           1.11048643044937    1.45821684842998    0.58322210608582
H           1.28865675761786    0.65977411388523    0.04406555634060
H           0.60828767264026    2.65374672438489   -0.41571939159013
H           0.34253652942080    1.23104773843282    1.12491562735868
O          -1.09666419503872   -1.69235072455977    1.61918936900342
H          -1.08109007491469   -1.99671222560416    0.68914883896696
H          -0.15327460897263   -1.76102809701300    1.90755105108490
H          -1.36801855706657   -0.23457514127757    1.46476575922570
O          -1.73423488341567    1.43155723991009   -1.12667146506679
H          -1.10996823302290    2.24476067373221   -1.16318024161380
H          -1.20562778781618    0.68368230821711   -1.71747599200585
H          -1.70916422937286    1.11728546728038   -0.15061537055347
N           1.58284846796387   -1.70882176152506    1.90942364534961
H           1.64499289427463   -1.48216912522842    0.91691258495127
H           2.05892338418846   -2.59025518866418    2.05275530995969
H           2.09379302983186   -0.99586809742965    2.41521607964697
