    26
        -50.45479431  Gyration_radius:  2.47112926507 Dipole_moment: 5.899
 S          -0.40252786492812   -1.94034290180590   -0.71258388580367
O          -0.38071377179428   -1.25171764383505    0.56557542206191
O           0.32333609843961   -1.04807831840869   -1.74760359174690
O           0.18877164427591   -3.23251592810701   -0.71520316381877
O          -1.84457934753159   -1.99910786857183   -1.21770419773839
H          -2.17541969342804   -1.00402268241211   -1.27995561821750
O           2.56092384018766    0.68450116281363    0.98072499541893
H           3.48860327350929    0.91421150730877    1.04916222699659
O          -1.25981896444956    2.21805046092730    0.57164974346702
H          -1.34805446790970    3.11977558653574    0.88322205620444
O           0.79027327859133    1.32830900903210   -0.98836553769410
H           1.49149111452834    1.18319326642186   -0.32333090682422
H           0.48511986985568   -0.08329149570883   -1.44541555255282
H           0.03026210935822    1.69719405832465   -0.49611997779813
O           2.18152618894786   -1.95721311178239    0.90784571925679
H           1.21911186417018   -1.83660427884891    0.97810941784341
H           2.28318275565895   -2.65783047838758    0.25822385385685
H           2.51869855431340   -0.29833884464990    0.94462361476654
O           0.05433430491557    0.76951751140591    2.30295010545531
H          -0.84972942519167    1.70172773469639    1.32021743311587
H          -0.20643246672948   -0.06780329835897    1.88535168596350
H           0.99068333944984    0.87189707310803    2.07710816145466
N          -2.48867319216727    0.46297882112673   -1.41737848522015
H          -2.19101607075192    0.99078194330855   -0.59899997570429
H          -3.47747217134248    0.62036398087695   -1.56178704858190
H          -1.98188076998416    0.81436471498476   -2.22031648416807
