    26
        -50.44540654  Gyration_radius:  2.75918477401 Dipole_moment: 1.147
 S          -1.55754289076910   -2.49906249925877   -0.76720909767429
O          -1.24448156586513   -1.85187197570565   -2.01036726897931
O          -0.34322452466913   -3.24910150674600   -0.23850498236570
O          -2.14353358180198   -1.67673056112703    0.24162835364162
O          -2.55081750535038   -3.67658199112587   -1.07214432262956
H          -2.20778739932867   -4.09597239358510   -1.85754905366197
O           1.30851803245278    0.13363124961467    1.95663784446961
H           1.83558429219724    0.17691832525697    2.75460675523347
O           0.33867359193349    0.27875450738821   -1.47534090303306
H          -0.23076476758550   -0.34428571775429   -1.95449931775532
O           1.49685371408733   -1.61426123427886   -0.06380201664000
H           1.21369532548271   -0.91129135177576   -0.70779179685933
H           1.46453011340077   -1.16379549903591    0.80899852898198
H           0.49598021152205   -2.58255659969716   -0.14282594465583
O          -1.13352403641745    0.76878015125317    0.73843914061083
H          -0.44618218925259    0.53937752274885    1.38317901940106
H          -0.22593548343315    0.62442182928654   -0.74785468000395
H          -1.67375309666938   -0.03355112247918    0.63487322490336
O           2.08092325635159    1.89749774735103    0.18926384661177
H           1.88378332023831    1.44913102902037   -0.64096673475692
H           1.38432485412829    2.59362608361220    0.26939478478202
H           1.67167484730709    0.83397135005925    1.33812868182956
N          -0.09591418784340    3.51219860135202    0.33338398743645
H          -0.74449827539170    2.74707690733729    0.49779279999368
H          -0.35495635061314    3.95237791335297   -0.54044799788179
H          -0.22162567426114    4.19129923471539    1.07297714915505
