    26
        -50.44540687  Gyration_radius:  2.75866402633 Dipole_moment: 1.143
 S           1.49952374752371   -2.64606630638562   -0.08108506836431
O           0.18497625383477   -2.96608057618882    0.40063965596418
O           1.47799314503252   -2.44580117674794   -1.58954031933510
O           2.16817302963362   -1.57162670335041    0.57915471845955
O           2.39091501238274   -3.93155475037912    0.05700216839097
H           1.83825818327655   -4.65164983433064   -0.23691584766168
O           0.49704167977769    1.78778094532929   -1.45308131593755
H           0.70872217133900    2.50649029858888   -2.04898893742528
O          -1.32732038595558   -0.72225097978862    0.31218456195308
H          -1.04310574553362   -1.62946924355279    0.50761496473509
O           0.82767943583698    0.70154576562045    1.10917594996895
H          -0.65317283128570   -0.15122059189463    0.74447997444381
H           1.42917852408676   -0.06240014671004    1.07634041613186
H           0.96383727059478    1.17781397532203    0.27538033585149
O          -0.21546464598634   -0.71752443228690   -2.07106579569561
H           0.19530533243425    0.17403225405208   -2.02054865273593
H           0.74990595791399   -1.69970993745502   -1.85961714062710
H          -0.79568693724094   -0.76074252117625   -1.26431348662438
O          -1.93086432669437    1.99619024304845   -0.50951145710035
H          -0.44380886008481    1.94324829575852   -1.14340722435370
H          -2.18295331457537    1.07258017005767   -0.39745335616378
H          -1.77167393793729    2.32544703375186    0.40857620290445
N          -1.26026266960071    2.57506581737504    2.05524959891640
H          -0.43171115215155    1.98636700688588    2.04961258393090
H          -1.89445022873100    2.20677719328922    2.75282501455638
H          -0.98103471831809    3.50275822161329    2.34729246629487
