    26
        -50.44721204  Gyration_radius:  2.51050859903 Dipole_moment: 3.930
 S           0.29226655277136    1.46374721554033   -1.51298089256530
O          -0.59921399858531    2.27169239327070   -0.66072931659631
O           1.33795873818373    0.84800733822550   -0.71014461675156
O          -0.41473621505534    0.53708125834209   -2.34940201804584
O           1.00345737644415    2.51842430205618   -2.44892806127651
H           1.30676136516496    3.15166972896791   -1.80717382161978
O          -1.50562619898010   -1.38389637482780    0.73192871218830
H          -2.24239027896795   -1.97369748704478    0.89882824663399
O          -0.66685325117830    1.45491332791455    2.99914612231705
H          -0.90817100559668    1.04372194607029    3.83060368048862
O          -2.07368957024585    1.10255051147514    0.90357191357445
H          -1.61907013212063    1.34371631945870    1.79082475421401
H          -1.47382514357904    1.63337598067829    0.16383324670086
H          -1.89430757084112    0.10127843042872    0.77308649133244
O          -0.60166033858218   -1.98683594304622   -1.54533021294833
H           0.36151102661953   -2.16011527896497   -1.40349971622860
H          -1.15079594371238   -1.64574131577703   -0.20203473209537
H          -0.62046155690478   -1.12001978848800   -1.99946513847284
O           0.87211208613456   -0.19931067263064    1.69810521429485
H           1.14256109558949    0.22795358809756    0.85888308556679
H           0.06005903311955    0.89763780590469    2.60277228339933
H           0.21721440624867   -0.86359414636805    1.44374852405771
N           2.04867026755101   -1.93482525347987   -1.05737723623591
H           1.97293801669071   -0.91912781282997   -1.00311149455913
H           2.69390352779022   -2.15436052144175   -1.80544985645957
H           2.46138769172865   -2.25424554159175   -0.18970517090672
