    26
        -50.45479409  Gyration_radius:  2.47117638067 Dipole_moment: 5.894
 S           0.57369600430131    1.35892520732973   -1.50353413258123
O           1.75414290003098    0.52258827593850   -0.95463207567930
O          -0.57189182605065    1.13717799909305   -0.63939465542956
O           0.98236200695220    2.71381343232368   -1.63283525801904
O           0.28636335862753    0.74292423854199   -2.87315985671016
H           0.08907567423284   -0.27450723636030   -2.70249494532689
O           0.38805126357929    0.60763830838188    2.73312658161101
H           0.77188422491953    0.76043132768091    3.59762629827983
O          -1.31220836194575   -2.24547861577589    0.26659110510770
H          -1.69850695565208   -2.98238182414154    0.74168853824152
O           0.48091571207801    2.78551427599211    1.19184656708850
H           0.48047984891881    1.45096140043722    2.23376957189213
H           1.14914986316295    3.25005877824957    0.68107523595513
H          -0.07265460339437    2.35215743578045    0.51973258043379
O           1.13622975838337   -1.18397965631339    0.81958073181691
H           0.29903223752463   -1.63719470470487    0.59638526912327
H           1.49471818486877   -0.18158125848552   -0.25795759580298
H           0.93043803418220   -0.60614247948164    1.58019905050027
O          -2.01679934225478    0.02324948710071    1.35206046271031
H          -1.70588191627604   -1.41886958709107    0.66270952593497
H          -1.35900413679759    0.20245199287708    2.04025161945877
H          -1.71915218824582    0.54565873638938    0.58920641419375
N          -0.07318690874606   -1.72560885971741   -2.33035102986395
H           0.84285057374034   -2.09011311306963   -2.10015724837011
H          -0.45625364647384   -2.26593108173683   -3.09492974448457
H          -0.67384976970342   -1.84176248920612   -1.51640300006200
