    26
        -50.45479398  Gyration_radius:  2.47097391655 Dipole_moment: 5.897
 S          -1.22260255084687   -0.80509666618346   -1.51369887398814
O           0.11634437402099   -1.56150616120085   -1.34340814838348
O          -1.14910190629054    0.41656364253895   -0.73235502329963
O          -1.48304813311331   -0.62375356666794   -2.89887574807635
O          -2.25848265731640   -1.73499542317033   -0.88113754254785
H          -1.94268705515439   -1.89753525071516    0.10719916758759
O           0.10902731684939    0.15133839404211    2.60750693827453
H           0.46893680509890    0.41974891403300    3.45386844714460
O           2.14151266455496    1.73336202903567   -0.63001605119215
H           2.98088811600031    2.09028194957571   -0.92341981078267
O           1.62266431347366   -0.69003984699161    0.50355266127169
H           1.10502005236125   -0.45948189911092    1.30047211710122
H           0.70852418710189   -1.22149532211077   -0.58022386628221
H           1.91988371197434    0.16053440194219    0.12525660862041
O           0.37693839619176    1.54351963896492   -2.62442671622310
H          -0.32879927934128    1.30829479085262   -1.99799910785460
H           1.56498000282458    1.68512673479949   -1.42648033696200
H           0.23099426258679    0.95844444326478   -3.37246948065398
O          -0.12213926246658    2.20550922362938    1.01081670485435
H          -0.68944949551826    1.72649503850829    0.38459018011999
H          -0.05325029712511    0.99037237451896    2.09287020814510
H           0.72934274992504    2.28384519606123    0.55575565325843
N          -1.32513914608700   -2.12515327972904    1.46282356875912
H          -1.97132256754696   -2.57758340360687    2.09607865970372
H          -1.01121298095613   -1.25359499040383    1.88547382089266
H          -0.51782161122539   -2.72320097186491    1.33824597052419
