    26
        -50.44721200  Gyration_radius:  2.51045904607 Dipole_moment: 3.934
 S           0.65717994815593   -1.99157814601292   -0.34493057043269
O          -0.21005499959962   -1.21595394355809   -1.21869864720255
O           1.99618352696712   -1.37832615006052   -0.27624121032916
O           0.09031047453892   -2.25378779586416    0.94664187861032
O           0.89623506159444   -3.37860357836818   -1.06132253073722
H           1.39846485822940   -3.10342224869608   -1.82086777737000
O           2.25697780341204    2.25467269439634   -1.17341897466237
H           2.25725447631965    3.20959290866398   -1.09123497514431
O          -0.12586929152273    1.47741270231437    1.58696045285126
H          -0.16285364516479    1.99339591915051    2.39376528620358
O           2.22677620299677    0.76036104720195    0.89055740799536
H           1.29111108047542    1.00272153483177    1.23352293847700
H           2.15252585333697   -0.22435056477404    0.42859142701056
H           2.38975096121935    1.38266116060669    0.09146312733040
O          -1.64945763516734   -0.50459650680163    1.92904045416371
H          -1.05007541861644   -1.25060365878508    1.72359208133157
H          -0.75386461053164    0.67319427563706    1.74669689370694
H          -2.27514545144187   -0.48439177090714    1.16354034596127
O          -0.22234601281742    1.45110893600948   -1.23810221153526
H          -0.22634735299148    0.47750981360087   -1.34791058437817
H          -0.46567238076873    1.60195420106952   -0.31457189917183
H           1.31913717504040    1.98394320655242   -1.38144568149310
N          -2.92152708552816   -0.56823813133153   -0.44634752209139
H          -3.62734600045008   -1.27468257897861   -0.61012401993352
H          -2.04852407472715   -0.90365758704577   -0.85335863738461
H          -3.19282345260982    0.26366427085008   -0.95579705160205
