    26
        -50.45538156  Gyration_radius:  2.5657828934 Dipole_moment: 4.104
 S           0.12744500476360   -0.02604061130415    1.04355709737303
O          -0.63801145901134   -1.21093445662760    1.34428709815676
O           1.30956629461890    0.09865544278915    2.02941837085237
O           0.72172519872478   -0.11085612873859   -0.31359976168015
O          -0.63661821531456    1.21455214193033    1.15080457628784
O          -2.73504504266161   -0.01588935683848    0.10354850078256
H          -2.35136387225781   -0.85560333773452    0.39014331730713
H          -2.19652921788655    0.63306244203637    0.59104379980333
O          -2.33151509555153    0.83279486345228   -2.33414173869528
H          -2.53948795321238    0.41329355850218   -1.45362272890374
H          -2.96547039632301    1.54414034675489   -2.44582595626149
O          -0.15887674996579    3.35369447048719   -0.22199278034674
H           0.62549155749694    3.77880220439382    0.12956390871046
H          -0.39263349571578    2.63118138023619    0.41741178501353
O           0.07709245922942    1.55363153828814   -2.00281632884765
H           0.00612100535602    2.38828621502990   -1.41443301139023
H           0.40849234212910    0.79857178257865   -1.30739590440255
H          -0.89077824157743    1.27030346994960   -2.23434981338537
O           1.53124996112570   -2.40936132331921    2.38594487552715
H           1.53161158035044   -0.85479035428771    2.28529056916191
H           0.57617281961246   -2.41334752590588    2.22066234720243
H           1.93663287270432   -2.64129524862665    1.51386328188709
N           2.24290222911882   -2.56563116154177   -0.20321160021034
H           3.19031417508673   -2.41479878372962   -0.52612897183505
H           1.71986628575372   -1.70556294098953   -0.36556745043119
H           1.83164593342703   -3.28685862681126   -0.78245346166090
