    26
        -50.45620274  Gyration_radius:  2.42260820146 Dipole_moment: 7.327
 S           0.73071523493163    0.57411463302824   -2.00779335315800
O          -0.30687257898944    1.46734878753742   -1.52370979966407
O           0.26219878822266   -0.84362191889880   -1.90229654195699
O           1.28995923248877    0.87324511161665   -3.27870297928544
O           1.91408663610751    0.62805044475390   -0.93465095491152
H           1.57811927901778    0.99187459815878   -0.08683376427372
O           1.19703211273071    1.45977594113856    1.49689051553087
H           1.71417372492691    2.21817558663520    1.77025276850982
O          -2.14125154269968   -0.49888397510154    1.16117108649703
H          -2.94686006258539   -0.88043253161183    1.51101787992800
O          -2.28694798369223   -0.44422416847236   -1.44046346944453
H          -2.22111573479627   -0.53898047064149    0.16413156007649
H          -2.28382562882303    0.49288564029406   -1.66486684440948
H          -1.38446539140084   -0.73447127922399   -1.69699373882799
O          -1.20527647829427    2.10386722344837    0.87437490229488
H          -0.98112833200381    2.01440621128676   -0.07760991048873
H          -1.69812660592266    1.29741437288380    1.09798418773425
H           0.25721258284190    1.79616817908394    1.33744316149144
O           0.36578198807946   -1.09070015036941    2.00530490021411
H          -0.57300264349308   -0.95859587468458    1.75890315451417
H           1.11747098174803   -1.70459103902221    0.79860074497532
H           0.73905513038324   -0.19406015246634    2.05429834549891
N           1.61759546726966   -1.97911459012404   -0.11281002084672
H           1.70701732857214   -2.98517337295304   -0.20681356402633
H           2.52434611961577   -1.52008468159671   -0.15563679382373
H           1.01410836576487   -1.54439250470108   -0.94119147214948
