    26
        -50.45116924  Gyration_radius:  2.6617682679 Dipole_moment: 3.387
 S          -0.10065115418651    0.81332979679731    0.73707394519205
O           0.67750309939958    0.37301398667645   -0.51223940140153
O          -0.10538767340191    2.24528793485034    0.81191869630538
O          -1.41011210276217    0.20212615530780    0.71887700687205
O           0.72935002946688    0.22427845963646    1.87128249092755
O          -2.82035493956845    0.76113052218650   -1.48224499848315
H          -3.29604321915543    1.56993620355367   -1.28127647579935
H          -2.42022348776053    0.46391625177730   -0.64125864331927
O          -0.65730171794958    3.72978601278265   -1.31711663060205
H          -0.51671339901085    3.28592209879400   -0.45468450860622
H          -0.02328521700298    4.44788529740023   -1.35342154029823
O           0.66487716402647   -3.60627457964255    0.80386303843011
H           1.39468062826087   -2.99430793185858    0.52137663280826
H           1.07580448888935   -4.31822145904647    1.29691936847263
O          -0.44843400940177    1.35321938007163   -2.48707049093065
H          -1.37362255636585    1.03719277237208   -2.34377947564901
H          -0.47788093524331    2.31023780795057   -2.25425767737052
H           0.23237629685884    0.76855947490420   -1.40876627017663
O          -0.60939853319486   -1.83578110175823    2.28151649682849
H          -1.32489169307780   -1.45352052232687    1.75338591910968
H          -0.20988502597571   -2.56448395653419    1.73588325327980
H           0.25088416307917   -0.66517612677193    2.13586757751237
N           2.55160384203253   -1.77355292395466    0.25903942633923
H           3.32211395713971   -1.92569047830348   -0.38009788656495
H           2.93029623991905   -1.40621747561302    1.12408315675767
H           1.96469576498801   -1.04259557925137   -0.13487302963510
