    26
        -50.45620278  Gyration_radius:  2.4225868654 Dipole_moment: 7.326
 S           1.59101685240935   -0.92939946840978   -1.22421729603082
O           0.76612134583276   -1.90342729262733   -0.44237488103482
O           2.10765597124621    0.09577758946507   -0.33492200631497
O           2.53007490414613   -1.56758596995281   -2.07766242524281
O           0.50014078421573   -0.21882202356221   -2.15174104666631
H           0.21757980449289    0.62822454138643   -1.74354406445748
O          -0.51760887063108    2.04342964803015   -1.16875948662397
H          -0.39204802570244    2.77319716881574   -1.77617625191365
O          -0.51697764581387    0.47357113102136    2.38531489047179
H          -0.77046283453236    0.44886321377002    3.30842035311138
O           1.43534355709564   -1.20831773336378    1.99487855554719
H           1.17212698202648   -1.62732960275601    1.14646289818010
H           2.18356226679457   -0.65715552432216    1.74004853109954
H           0.20008853026867   -0.21566648479219    2.27210408484500
O           1.04446531086594    2.19536496250620    0.85889435006907
H           1.60829490275106    1.48865229697314    0.47536677737591
H           0.08576498620731    2.22186607633479   -0.37769617958215
H           0.52325147026634    1.75851316593349    1.55227945697553
O          -2.23653465883304    0.50357832394436    0.29030124884409
H          -1.82024844679047    1.19271985130533   -0.25510076003309
H          -1.97363154178584   -0.78313372659180   -0.52996553380939
H          -1.69883646806405    0.47207801817798    1.10846423607648
N          -1.63697768247476   -1.61155247166831   -1.12716046929796
H          -0.58874843431242   -1.81535298003438   -0.81270275698995
H          -1.58700746331970   -1.32972352805860   -2.10328324019450
H          -2.22640557635758   -2.42836918152625   -1.00722895440346
