    26
        -50.45620277  Gyration_radius:  2.42259686791 Dipole_moment: 7.326
 S          -1.17886415233828   -1.84312797724164    0.32779688883602
O           0.20548601777683   -1.99382310210769    0.73965283992672
O          -1.23179279403190   -1.31755389484107   -1.07274724436630
O          -2.02999946736172   -2.96293933128182    0.52541153023497
O          -1.77567881311074   -0.62700266969429    1.17626758591064
H          -1.04287434506754   -0.08756128773338    1.54501657127822
O           2.10043975076192    0.72802467495450   -1.11344508812332
H           2.79031816893305    0.99829747560811   -1.72007700683807
O           0.04045339842462    1.05969835343697    2.16398308777091
H          -0.03728737141934    1.13494447347210    3.11563272155335
O           2.09706929999250   -0.30442050756855    1.46858697235384
H           0.90581336545791    0.56886757987066    1.98505756433924
H           1.51711037892002   -1.06868985379084    1.25875973005626
H           2.32282182777237    0.08865580035199    0.60963190422492
O           1.27105694603106   -1.65223068174237   -1.77611749266882
H           1.78201558761929   -0.16651039732546   -1.43042904112562
H           1.51169541256415   -2.21050379334071   -1.02848339731417
H           0.29826851965528   -1.55991087795765   -1.67723972343930
O           0.05507908086815    2.29459010415655   -0.27105691742920
H          -1.25580594720997    1.62631915488978   -0.75365507934458
H           0.06507248143707    2.08284232297563    0.67803047438222
H           0.81601612780527    1.80450102349740   -0.64559138630321
N          -2.12216732631144    1.03378497907056   -0.98712672998121
H          -2.75807487068078    1.03239953560703   -0.19320991917810
H          -1.76213677239665   -0.01422231172887   -1.09366221768874
H          -2.58403450409060    1.35557121846191   -1.83098661706630
