    26
        -50.45620270  Gyration_radius:  2.42261876425 Dipole_moment: 7.326
 S          -0.23157674649703   -2.14658252233430    0.48346045962383
O          -0.31940800803341   -1.89162953854975   -0.94345011529998
O          -1.17465085816033   -1.24249316424672    1.21403408602828
O          -0.33834880178714   -3.50071376648114    0.89868961507715
O           1.19798917142257   -1.60844539639700    0.95433539216413
H           1.55727323539782   -0.98789086209957    0.28363908384804
O          -1.18669313875700    1.79614894999519   -1.24449144616890
H          -1.76752451911343    2.49341537647249   -1.55010946249026
O           2.30870825829904    0.20572546302058   -0.65625057240720
H           3.17479745376985   -0.07711318435728   -0.95158357172492
O           0.55270217901739    0.03891644622250   -2.51688585310348
H           0.18653302372608   -0.76995204928300   -2.09712994737888
H          -0.06406985325505    0.75112170082881   -2.28097792014043
H           1.70396703003224    0.16940342400798   -1.46543872775860
O           0.78271685250330    2.09266645352385    0.59442657732478
H           1.49425941442939    1.59608853684264    0.15523638872801
H           0.03925698144956    2.08282728811822   -0.04324957773361
H           0.42468563487162    1.18080762743095    1.79374643527986
O          -2.59653894222681   -0.35016801156207   -0.79913349135379
H          -2.27381741078911   -0.99144977434171   -1.44188962000428
H          -2.20983615231074   -0.67123191895788    0.04465977905726
H          -1.77278561364363    1.00984724883503   -1.04381843373808
N           0.19338167936749    0.41903650284651    2.51648809849509
H          -0.25665947170355    0.80346339693024    3.34029870272736
H           1.04052526924340   -0.08910946268767    2.75911958689451
H          -0.46488665725213   -0.31268875377726    1.99627453405638
