    26
        -50.45620254  Gyration_radius:  2.42271288192 Dipole_moment: 7.332
 S          -0.98339078413294    0.32496468901115   -1.95582411870577
O          -1.37772012587528    1.31575968179361   -0.97022821739930
O          -1.16901642431251   -1.04830469972569   -1.38985086919530
O          -1.53817523498324    0.46125668193060   -3.25617861635769
O           0.60562879190698    0.42988283797690   -2.09494568163668
H           0.97764233620670    0.89484432142871   -1.31434788991943
O           1.85053057063079    1.54083148331125   -0.01251840637888
H           2.37430313263204    2.29535022127182   -0.28393033083406
O          -0.60459162450586   -0.26551013662530    2.39778758691731
H          -0.88729305764871   -0.56633991276562    3.26186434124087
O           1.75231243693441   -0.89535674976251    1.21570982944021
H           1.41570877800168   -1.66710851687707   -0.08404120653907
H           2.00811368046324   -0.01893100616451    0.88081953059919
H           0.92397462816485   -0.74121272614738    1.71523409500834
O          -2.59760978170749   -0.47226785668741    0.73108309590676
H          -2.15385098746018   -0.83451782980396   -0.06662029676718
H          -1.38261667126077   -0.40412887066436    1.78336049615863
H          -2.79491229271877    0.43537386571969    0.47449196656086
O          -0.27376007565499    2.24102904972492    1.24056822778170
H          -0.80914639314053    2.04262869673064    0.44145016600481
H          -0.41732128872327    1.48859463740471    1.83770200138168
H           1.07715471048648    1.90733646349558    0.52542985246386
N           1.10784442971670   -2.05844661428209   -1.03701565318827
H           0.07404268510540   -1.68273687843561   -1.20770226686862
H           1.14306219648892   -3.07198766871491   -1.05878949936749
H           1.67908638538830   -1.65100315314438   -1.77350815630729
