    26
        -50.45620276  Gyration_radius:  2.42261101369 Dipole_moment: 7.326
 S           1.97060080668021   -0.06656774993332   -1.00352994100718
O           1.23972646509409   -1.31369625636485   -1.14226031285171
O           2.02531803675374    0.32548381487138    0.44004537577271
O           3.23870760709954    0.00525793757809   -1.63929453761381
O           1.04741108385163    1.07431047045056   -1.63693500787715
H           0.12129921538876    0.75476955437258   -1.70216504441412
O          -1.54836062179377    0.47494872269443   -1.78410796367018
H          -1.86979304208736    0.54453980462974   -2.68364063166083
O          -1.31617040349595   -1.28965200344096    1.66916971468512
H          -1.69679825123600   -1.68659370225338    2.45306503238153
O           1.21277226057180   -1.90773374243417    1.54628072596684
H           1.29308351887501   -2.44807473985633    0.75249353137844
H           1.61410234591940   -1.05411827872438    1.27254155093601
H          -0.34065276642438   -1.51354979394651    1.68602907712434
O          -1.76213814197733    1.24748490319445    0.82577317252466
H          -1.90083737957392    1.08393520865581   -0.12275478545074
H          -1.65024714144121    0.35783610586050    1.22009826977890
H          -0.39729955413783    1.97862351547173    0.84730336361735
O          -1.31515857370867   -1.96401821858789   -1.02858239919119
H          -1.47153774576235   -1.89806349362567   -0.07229933954174
H          -1.55232013967561   -0.50925775745844   -1.55368368434971
H          -0.34091459926463   -1.90266319233620   -1.13613237842808
N           0.59721840617377    2.37411583686560    0.74376135113546
H           0.85050492740700    2.96975030544608    1.52483266029599
H           0.67680421887356    2.86873607878189   -0.14153425331515
H           1.27467946788933    1.49419668008825    0.66552645377606
