    26
        -50.45620278  Gyration_radius:  2.42257134291 Dipole_moment: 7.325
 S           0.78264033672256   -1.41180119561517   -1.51261840517565
O           1.84363182526079   -0.76462865083048   -0.76147256171436
O          -0.14920291989073   -0.37598025021518   -2.05971751286156
O           1.17991105955163   -2.36263734663403   -2.49013745677392
O          -0.13278577061967   -2.17077252030514   -0.44441246949967
H           0.03472669745609   -1.80988399591986    0.45320525927194
O           0.26897582286162    2.37325045024584    0.68963770306540
H           0.24531255580167    3.32556487293248    0.78723872415220
O           0.05474536760076   -1.25747194014921    2.05558917319557
H           0.30805973065182   -1.95441326662325    2.66172087117570
O           1.97620841554543    0.38132034777130    1.61187580712816
H           0.84481626052841   -0.63001732222281    1.99402600710856
H           2.11990831540814   -0.02838617208661    0.73099879054890
H           1.50172822498871    1.20990518025433    1.43415130258734
O          -1.73870281194250    0.68073012653371    1.36153544515936
H          -1.22694458650362   -0.01053168648345    1.81539123799548
H          -1.08189200936556    1.37109825562053    1.13462788805328
H          -2.18743343647346   -0.02831076763367    0.06023338575698
O           1.27733421426478    1.78268327270196   -1.63996018972042
H           2.09969034921473    1.32226255321842   -1.43928805067420
H           0.68572222014348    1.05678675843254   -1.93609986760282
H           0.61886254912164    2.19360703559660   -0.23089329261758
N          -2.34274792105929   -0.58596077288789   -0.84595542778865
H          -3.15600850065070   -0.25889838089521   -1.35648012334199
H          -2.41487424127564   -1.57693227358821   -0.62803105823470
H          -1.41168173733894   -0.47058231121649   -1.44516516919195
