    26
        -50.44495238  Gyration_radius:  2.70093381466 Dipole_moment: 4.640
 S           1.25441475159524    2.41428293040020   -1.17243452929525
O           0.43127341565898    1.81491242883644   -2.20814090358078
O           0.42554768029524    2.84240103577215   -0.03007015210736
O           2.36197322503748    1.58984329527110   -0.75925482855974
O           1.85380754225799    3.74499242254826   -1.77799008959784
H           1.07346400449201    4.20075304677605   -2.07821691475606
O          -0.27148520866677    0.75856810499791    1.08004870906797
H          -0.02255992829610    1.72748516793798    0.71086178493544
O           0.93885903146080   -2.22202663213866   -0.45278569050492
H           1.24512054451561   -3.06151980166597   -0.79597476263548
O           2.02112816525884   -0.23459912898551    1.07163033520480
H           2.36131992304511    0.45683471366372    0.45491361612804
H           0.68182447332289    0.31526698204057    1.22990553602778
H           1.88286150066311   -1.02287345903503    0.51312262072550
O          -0.65776515028774   -2.48372873616630    1.61893937069406
H          -1.50224408653335   -2.04577151258070    1.33535533983382
H           0.33631221248776   -2.42639285787527    0.31152297593173
H          -0.31080756232997   -1.95815827486717    2.34256029656873
O          -0.79565406281930   -0.22617739460610   -1.18806358179593
H          -0.39067846613304    0.51876226720422   -1.70390258301377
H          -0.15744993260604   -0.96111068358396   -1.21784909541732
H          -0.62322261042359    0.29558826761651    0.21718844367988
N          -2.84299163525958   -1.15820012831132    0.74857399909483
H          -3.05040764133521   -0.31960830076444    1.27662182430068
H          -3.69943891682733   -1.68800850060287    0.65147375930915
H          -2.54320126857244   -0.87151526199428   -0.17803548031603
