    26
        -50.45620262  Gyration_radius:  2.4226655053 Dipole_moment: 7.330
 S           0.22773233834548   -2.04239229196214   -0.82077214159243
O          -0.93929681083089   -1.87203467721310    0.10093416605572
O           1.43712909107348   -1.57398665764492   -0.16759807862557
O           0.27804875161882   -3.33457372786957   -1.40808867518161
O          -0.09506001533422   -0.99504889304553   -1.98445113668281
H           0.38633578960821   -0.15550972021927   -1.81908127903991
O           0.30218644643776    1.21811510394945    2.14691938616979
H           0.23133207453436    1.59698823521165    3.02353411243259
O           1.00236139867460    1.41673389150220   -1.66997714014762
H           1.54442136808262    1.65168616969749   -2.42375265773515
O           2.41396491124473    0.81441425446767    0.38368414017558
H           2.22471010176893   -0.13747590523840    0.23320424212213
H           1.63642999725871    1.26186823485804   -0.89806264425208
H           1.83330926499082    1.07785915204380    1.11631206189257
O           0.32549919435674   -1.38065988367588    2.34369986768087
H           0.26210409425536    0.22498278216987    2.26595800462240
H          -0.26534925398741   -1.64193237711088    1.60400197530593
H           1.19708292833477   -1.64074184933446    2.02543877809172
O          -1.08912607744729    2.03995426487802   -0.02972708228638
H          -0.37425085572887    2.04742870575151   -0.68897534844702
H          -1.95919444859116    0.84438238357441   -0.48984335610900
H          -0.65006879629948    1.80528724399770    0.81383997008859
N          -2.41541150283456   -0.06457270777384   -0.83884207230488
H          -3.39388368641348   -0.12111812887930   -0.57736320320640
H          -1.82600353189032   -0.89807079934451   -0.39502418636170
H          -2.29500280122829   -0.14158281279195   -1.84596770266472
