    26
        -50.45620276  Gyration_radius:  2.42260765734 Dipole_moment: 7.326
 S           0.15702008354766   -1.38222936734594    1.72029087002653
O          -0.82298947224236   -0.33418356681894    1.94386717565453
O           1.45675261789774   -0.77231565015906    1.29693398188853
O           0.31355505617980   -2.34237369028339    2.75522397375070
O          -0.30403071351995   -2.16232127861200    0.40348196159876
H          -0.93654597802018   -1.61047125774416   -0.10581534010710
O           0.10904737290226    2.43649880018972   -0.48356351972789
H           0.36219328202488    3.34388387733985   -0.65544233916195
O          -1.92618624354499   -0.79181891025589   -1.21182591453616
H          -2.74517138585913   -1.26470478176636   -1.36332022892195
O          -2.24584216102517    1.21548220724295    0.35093885242401
H          -2.16004930444154    0.01211133916566   -0.64541175160818
H          -1.83024598033815    0.70982882071996    1.08311260795645
H          -1.55882571733274    1.82799382296025    0.04092032073267
O           0.29858322012095    0.39588499414112   -2.25777156981806
H          -0.56631788799363   -0.02581558683845   -2.11699137381096
H           0.28641466101025    1.19067626872376   -1.68538102821845
H           1.28138761103673   -0.63838387112440   -1.65585644134461
O           0.98472180077577    1.74143284364003    1.87076097606867
H           0.50223085717385    2.19866432702675    0.40576889019609
H           0.18840325935035    1.57838196707977    2.38827047603542
H           1.32386783150178    0.83598722231891    1.69835604951974
N           1.84866226989129   -1.37388495783655   -1.11415356305042
H           1.75160570671594   -1.10936633699406   -0.03716294931764
H           2.81997473235778   -1.39248466191720   -1.40603995238272
H           1.41178446183103   -2.28647259285259   -1.21919014384676
