    26
        -50.44480586  Gyration_radius:  2.71560860687 Dipole_moment: 5.496
 S           0.03953496075808    0.61194027371850    2.93063953368144
O          -0.32684918290775   -0.74075901229224    2.46721485654226
O           1.36207460977574    0.97234148216108    2.44672463881790
O          -0.99245307155261    1.57188011009358    2.64683813995729
O           0.17417044769148    0.50895520994311    4.50487247834254
H           1.08153008346725    0.24551381754889    4.62572869005597
O           1.17259827490597    0.77600245704822   -0.12385432083603
H           1.41352656345292    1.01206608669606    0.80669306575809
O          -1.19502992655747   -2.15617519205627   -1.02986243615283
H          -1.20284608317134   -2.93458830633678   -1.58732140461614
O          -1.38840353486473   -0.03233846005367   -2.49975018879494
H          -0.48166601003078    0.23842686025191   -2.78846868342376
H          -1.30669166789931   -1.36339184356937   -1.63884531916067
H          -1.64863630957844    0.59964754944840   -1.81863797183196
O           0.79524537800320   -1.63463589580102    0.46898103555022
H           1.09150934878134   -0.70052570282497    0.10620242627531
H           0.34525585634472   -1.34123162456687    1.39895187951754
H           0.00935163009385   -1.92588601980765   -0.12453187907235
O          -1.48643139965032    0.80582624052059    0.20053925800041
H          -1.83844484404131   -0.07300438970148    0.37389560494868
H          -1.43704404388998    1.23166187655536    1.08630318236162
H           0.20717153421022    0.95857191218010   -0.17216460329590
N           1.14785435007761    0.74518888783120   -3.06715373877237
H           1.49502873972944    0.89437427254670   -2.12394386014015
H           1.19504624166063    1.62944417016418   -3.55731312328368
H           1.77459805546231    0.10069524029658   -3.53173726038386
