    26
        -50.44480584  Gyration_radius:  2.71550998921 Dipole_moment: 5.492
 S           2.49831654151867    1.10436788536299    1.22544925232978
O           1.27755689332771    1.93246698020066    1.17212936159272
O           2.23872678165356   -0.13530073526832    1.93883913180130
O           3.09232981987129    0.94329862073894   -0.07388617735815
O           3.52690824613015    1.90650582414627    2.12301532759411
H           3.31608917683480    1.61410063099336    3.00470886593449
O           0.30315389627521   -1.23103752509884    0.62135187713765
H           1.09666346283326   -1.03824764295695    1.18065245341521
O          -2.07513567723193    1.52146843609353   -0.71730146959049
H          -3.00915771220094    1.73200753478346   -0.72336590984110
O          -1.62187304722871   -0.47165359800323   -2.30825198657854
H          -1.94400057368800    0.76902162385981   -1.37181488798875
H          -0.66772855889766   -0.36988697125791   -2.40958542756207
H          -1.75284777160413   -1.31463194635222   -1.80720479867162
O          -0.90077180136954    0.81896569316299    1.42927985607220
H          -0.54753901152063   -0.13071705639483    1.17366188907065
H           0.01898639785374    1.37318312516641    1.41022858559290
H          -1.42498101640742    1.14936247716859    0.61044231769751
O           0.88764008706432    0.44900194858309   -1.38153014118112
H           0.44546380306648    1.29782762291882   -1.28013420358708
H           1.80524124742600    0.60859088289957   -1.06390703139384
H           0.51674165154427   -0.81538168917338   -0.24433254736409
N          -1.80336561326104   -2.71816104423538   -0.79846240027907
H          -1.07436073406621   -2.52494684842840   -0.11753593628789
H          -1.54355722506626   -3.55846697952252   -1.29925816826226
H          -2.65849927283277   -2.91173723933905   -0.29318784237223
