    26
        -50.44480585  Gyration_radius:  2.71555117971 Dipole_moment: 5.495
 S           1.86178113485352    0.54306035497273    2.28091829939991
O           1.24621553860521   -0.79069115380592    2.13564240190160
O           2.61209820254886    0.88755188452447    1.08446504025438
O           0.90527504305675    1.53020651158463    2.70227736703665
O           2.93793569420154    0.40023709028053    3.43352937267896
H           3.71695759801272    0.11485190827319    2.96554257372886
O          -1.63963544321886   -2.10771136762106   -0.08261676676086
H          -2.01409181449901   -2.87255454474711   -0.52026745674908
O           0.86771476845804    0.75461243917700   -0.81866579188239
H           1.63952244237587    0.96420589719480   -0.23554728264051
O           0.86592730904437   -1.66109146589194   -0.13337564044232
H          -0.12698646048501   -1.92272305513102   -0.11520306295461
H           0.90220318873569   -0.72502905137861   -0.59634942216065
H           1.09609149219479   -1.38002741730808    0.87740765471571
O          -2.63739612892096    0.05336008734308   -1.10389336931386
H          -2.08028582236152   -1.29881240212394   -0.48672931528332
H          -2.40142667897927    0.67428807402316   -0.40402457363783
H          -2.09595756339878    0.31293554538994   -1.89025830321856
O          -1.01869695434054    0.83082633796204    1.08205016384126
H          -1.21369283716051   -0.04465777229663    1.43107682586237
H          -0.41947560967354    1.23531212213852    1.74958904952407
H           0.08521028933725    0.95757140367950   -0.25815010434279
N          -0.97387411464598    0.79389375131493   -3.11462365774058
H          -0.78900869481500    0.14829270508180   -3.87162461278637
H          -0.11312199983293    0.91362056206382   -2.58811480264081
H          -1.21328258784605    1.68847156634021   -3.52305458615008
