    26
        -50.44721204  Gyration_radius:  2.51047603685 Dipole_moment: 3.932
 S           0.33990431702935   -0.23932450183890   -2.08434774301663
O          -0.23548282567986   -1.57621635886382   -1.84891745497292
O          -0.49084478126669    0.78437456217378   -1.46868045113529
O           1.72611762047694   -0.15107839581178   -1.72549205971789
O           0.22802012663786   -0.03257241715226   -3.64596088800270
H          -0.68570331404084   -0.25376657978844   -3.79095910294099
O          -2.59059753679268   -1.93503800712504    1.04839465843336
H          -2.91547005486982   -2.08090623791132    1.93823984000302
O           0.79544489932084   -0.63891677328916    1.91769962905346
H           1.28934847373266   -0.95993682889707    2.67371445036809
O          -0.17835780561532   -2.47309548186207    0.42720592676873
H          -1.17332475509398   -2.41009771279131    0.66859006876783
H          -0.14858298698809   -2.11694603158453   -0.60274186149674
H           0.28373718017012   -1.76232981114242    1.00440032594810
O          -1.60833504502410    0.47728376896706    0.93338777019671
H          -0.80319030649832    0.34932894234163    1.45319450095724
H          -1.29893201339961    0.63944117496728    0.01795875143593
H          -2.39149204091278   -0.96013781596365    0.97082216116103
O           2.34614748998405    0.88660434454822    0.63893227061034
H           1.44558724528697   -0.01856598085301    1.40873229645333
H           2.30713243370336    0.49815854217331   -0.25856757155426
H           1.85402279492682    1.73974616352102    0.55033503470307
N           0.68055442556369    2.93017619670173    0.07823944283425
H          -0.02754059219149    3.26395690644544    0.72042832496879
H           0.21950502594334    2.31189211353619   -0.58917617670412
H           1.03233200587850    3.72796621035609   -0.43543216348522
