    26
        -50.45364689  Gyration_radius:  2.37539129945 Dipole_moment: 2.956
 S           1.79562607287154   -0.02394585780071    0.03236281193528
O           1.40759324565650   -1.42792600432197   -0.13398812551905
O           1.90744914303921    0.66735039578426   -1.23072235893615
O           0.95166054892567    0.63495874267763    1.00436082254497
O           3.24701534940683   -0.04635593320031    0.66684166017120
H           3.79523315548209   -0.29663847169693   -0.06943691585570
O          -0.48785160565080   -0.37006814074711    3.07552228108116
H           0.36611090985554   -0.03214140985416    2.76362163928570
O          -1.87712255390004   -0.15300806813274   -0.78822513004696
H          -1.48647970694904   -0.63465671547432   -1.56640120715330
O          -0.35490389051739    2.01996181786444   -1.10588903015765
H          -1.41718757340331    0.71445059847999   -0.83455369722844
H          -0.19087433696984    2.76840423921602   -0.52904325335616
H           0.51027054273817    1.57799467791472   -1.23592212565174
O          -1.51816038427834    1.70389493977353    1.72050334302908
H          -0.63981237155393    1.53433539825361    1.34191124629505
H          -2.15739793059677    1.53750100677740    1.02359106015870
H          -1.09416202371278    0.38590330488501    2.94730014211267
O          -0.86291831862961   -1.66091621835030    0.92415448269669
H           0.08558037047828   -1.67820993956930    0.53268863045095
H          -0.77961562816240   -1.20610313597135    1.85593752689642
H          -1.38349403205254   -1.00277869519382    0.25843112560680
N          -0.20292262594821   -1.20002488490526   -2.55032654421371
H           0.50380505678367   -1.40184749611878   -1.84571312212500
H           0.14496406540270   -0.41312713274267   -3.08538081479149
H          -0.26240545836169   -1.99700704754515   -3.17162443713131
