    26
        -50.45364679  Gyration_radius:  2.37562593753 Dipole_moment: 2.961
 S           1.37143246456191    0.64250803672630   -0.96681577412671
O           0.50063312443515    1.26311188461432   -1.93756410489859
O           1.42071378382945    1.38908092058144    0.29399160274028
O           1.10292421186788   -0.75841891004322   -0.72885905299808
O           2.83635430343365    0.70480434474592   -1.56671134459347
H           2.89289274051230    1.59742901035498   -1.89127272601989
O          -1.81836993785509   -0.00386244337701    0.92970165758422
H          -1.82976911211585    0.98875475085695    0.86066556941950
O           1.54866078440477   -2.30450319845652    1.45723023501365
H           1.89859785111480   -1.94015406290985    0.62919398643179
O           0.41382292453464   -0.11273553031619    2.04325773851757
H           0.89998794585304    0.53854982693558    1.41643887410898
H          -0.57111803630649   -0.15548292621243    1.62439332362021
H           0.87865397026660   -1.03436514043577    1.91458529767337
O          -0.66350880169369   -2.78026061222766    0.01504799108833
H          -1.49819755765015   -2.39596398579183    0.29351482275703
H          -0.17447013627686   -2.08185088985036   -0.45034238939710
H           0.78356298251452   -2.83910994596642    1.16694698671456
O          -1.54325927144723   -0.38897467694736   -1.70029285125257
H          -1.31936155241915   -1.17081366093704   -2.20864392182605
H          -1.77231729976896   -0.27240621884295   -0.01465725125078
H          -0.83338335126152    0.26432663771461   -1.87337277116677
N          -1.26791262905125    2.50771543469613    0.30274427071224
H          -1.42559610761139    3.38825325174721    0.77656293419644
H          -1.56704666555990    2.61362525193658   -0.65942573133976
H          -0.26392662826291    2.34074285143498    0.27368262827268
