    26
        -50.45116940  Gyration_radius:  2.66202105812 Dipole_moment: 3.391
 S           0.96748525431688    0.13428432151294    0.50851923195769
O           0.60525642626425    1.47332294932641    0.10306340805463
O           0.11830781801742   -0.87654522446613   -0.27722539362046
O           2.35555298597955   -0.18832904354419    0.34950192687470
O           0.52664771323769   -0.10757939597604    1.94708872726362
O          -3.37620140942565    0.54463507903518    1.55087159816651
H          -4.01282340135001    0.50554034526303    2.26643217954007
H          -2.98405700356237   -0.36414854314273    1.46583064985079
O           0.87230618519157    1.90059771043795   -2.52240447411112
H           0.71419250826914    1.88456256419853   -1.55785734836687
H           1.77564136260484    2.20208098083721   -2.64053989134298
O           3.37282260109682   -0.75395421606075   -2.03519722934754
H           3.93836602055563   -1.52260897337591   -1.94425597770501
H           3.12613356190983   -0.48822330575946   -1.12464882794792
O          -1.11459675085055    1.75480877461230    2.15227190198562
H          -2.00919949111812    1.39111885296058    1.91590374678500
H          -0.17873769010970    0.63417549749451    2.15263163705700
H          -0.74896679669462    2.14098828231521    1.34345972715005
O           0.78925911632197   -0.73789303393860   -2.65609805820161
H           1.76409351105915   -0.87177376125055   -2.60402082696430
H           0.36406746719801   -0.86160786476890   -1.32510243419878
H           0.68269407265149    0.23096044908280   -2.81825327331875
N          -2.07900983460286   -1.80593583383554    1.46126210088621
H          -1.59004145995667   -1.95922444524787    2.33535505354775
H          -1.37068868554634   -1.57879720254368    0.76799501751706
H          -2.50850409146247   -2.68045495316747    1.18541680849155
