    26
        -50.45364699  Gyration_radius:  2.37545102556 Dipole_moment: 2.954
 S          -0.48575543787822    1.59787715838658    0.66089710627101
O          -1.12544157574355    0.61902209688640    1.54532213328091
O           0.85704363888713    1.92224634541649    1.08216540837750
O          -0.59982899485413    1.19663835578166   -0.72369096584686
O          -1.33670549646057    2.92728044366861    0.79613148863806
H          -1.07611340342863    3.25821723398549    1.64925127828954
O           0.96329610260711   -1.79871763664519   -0.07674213173904
H           1.15384948797369   -1.71253138160465    0.89608411933887
O          -2.41042757981693   -0.40097341439048   -1.96693504660366
H          -2.18403552431411    0.49281063277960   -1.66622267172054
O           0.13429873567780   -0.49307758306606   -2.81187251341414
H          -1.69832076234747   -0.61670705669325   -2.60099551621756
H           0.09534321184050    0.19292965073586   -2.12524495468309
H           0.71229354786825   -1.18459381842366   -2.48061690617769
O          -1.49747435254675   -1.44567588911192    0.15726463955856
H          -0.46526164288755   -1.66417028954818   -0.02744552232348
H          -1.45021944541946   -0.62995948041068    0.77861498318646
H          -1.93690236312187   -1.10966049493602   -0.72345286093318
O           2.15668783686639    0.50279204250147   -0.72334906844183
H           1.41612376624082   -1.00683964058874   -0.44299614715891
H           2.14337455182058    1.01731259353659   -1.53263196748422
H           1.76758694934350    1.07350260709525   -0.02794235854557
N           1.22633546813446   -0.87657809915020    2.39000418782902
H           2.02248605677626   -0.25101932138829    2.35424332459372
H           1.22014745956787   -1.32103275195945    3.29948068267689
H           0.39761979524006   -0.28909232288576    2.32067928916460
