    26
        -50.44721209  Gyration_radius:  2.51043083755 Dipole_moment: 3.933
 S           0.24566367215928   -1.04544058623594    1.83464420182419
O          -0.00408810923171   -2.22990891016334    0.99296173896346
O           1.23353517779313   -0.17966923238843    1.20869272234207
O          -0.95666677646098   -0.36470377620973    2.22099164014766
O           0.91704929621218   -1.62542529263807    3.14112209796518
H           1.60329744421401   -2.16621825189020    2.76496657121233
O           0.85983041507300   -1.95119832027006   -2.64612766380504
H           0.78158903303702   -1.76799335453153   -3.58363576498571
O          -1.55101859405768    0.60274608747563   -1.39700778861243
H          -2.34385096596215    0.84035572045323   -1.88024444905945
O           1.26130552949037    0.31051814307831   -1.41292746310760
H           1.19349778057679   -1.11465451802466   -2.21614948060252
H           0.38030553509192    0.69964858940694   -1.49791166670870
H           1.36792468896761    0.12395999911690   -0.45701055367653
O          -1.68616192538065    1.77796154313694    0.83183237884107
H          -0.84181331371065    2.28728663985302    0.90696697342525
H          -1.62539618194374    1.09191627804180   -0.49052879987494
H          -1.56739654498146    1.03219907559455    1.45439415230112
O          -1.18554254103102   -1.91263468322705   -1.12649231948730
H          -0.41429567061047   -2.06722922351839   -1.78490572391517
H          -0.72074233672705   -2.07970576494037   -0.15473318030143
H          -1.39653746967942   -0.91099284839051   -1.19046467257959
N           0.84134326548598    2.68301620823428    1.07009185360973
H           1.12342909895915    1.71711072301414    1.23683544629513
H           1.09917373727132    3.22277388252379    1.88636940876189
H           1.38556574542418    3.02628185250573    0.28827036100789
