    26
        -50.45364692  Gyration_radius:  2.37539828295 Dipole_moment: 2.955
 S           1.57544154559737    0.86257533051165    0.00653351637723
O           0.64036652396240    1.79063539861810    0.64971807449706
O           2.16720469222558   -0.05948546958376    0.94739559293816
O           0.97121013373348    0.23612156146857   -1.14830453609102
O           2.75629178182138    1.75604773510397   -0.55653001109971
H           3.24086588559049    1.98471400678794    0.22967329336316
O          -1.05568733850480    1.05813817376505   -2.75684811311531
H          -0.10403644856446    1.07540382380277   -2.57033604705163
O          -1.61253110045684   -0.99403820944068    0.76233890897184
H          -1.36101224504515   -0.66236791729251    1.66611914737524
O           0.73720409372371   -2.18672462293373    0.31987444468319
H           1.32952688526596   -1.46179844102128    0.61031076322794
H          -0.81748789796663   -1.51311627305154    0.50806066513437
H           1.12429425869133   -2.54642923024084   -0.48052387027543
O          -0.85441433394822   -1.56567066060568   -2.23319051041020
H          -0.09417294946268   -1.13847990186596   -1.80528508347581
H          -1.38938801552057   -1.94611297607068   -1.53242790791565
H          -1.24176459898656    0.11110642213235   -2.91190649829594
O          -1.63182779012690    1.26780526908433   -0.29521998747064
H          -1.70466342098455    0.27054739487879    0.08873754695130
H          -0.74034315862986    1.59710413618096    0.09230945952386
H          -1.49797059151818    1.22650585325626   -1.32598033635328
N          -0.32355627313514    0.08635240393663    2.80580841757436
H          -0.63162649315507    0.51864818415665    3.66771117743895
H           0.10725575287031    0.80600046328825    2.22858478945426
H           0.41082110236559   -0.57348247480572    3.03337708407168
