    26
        -50.45364680  Gyration_radius:  2.37558544382 Dipole_moment: 2.960
 S           1.03985992750462    0.01835654206104    1.46490793618405
O           0.69734728568615   -1.39348135099788    1.26774971327576
O           2.21660344786774    0.40581081800584    0.72258136372378
O          -0.11196973388354    0.86557138356389    1.24889398657391
O           1.40320449518996    0.16765965998820    2.99964459487961
H           2.26537750276730   -0.23138306552530    3.05184986981247
O          -0.52638348670565   -0.36610181947962   -1.93906157706120
H           0.23439941878902   -1.00474192518577   -2.00046773761735
O          -2.76702251731832    0.33304628506020    1.43703596535365
H          -1.95470773096310    0.60703301719518    1.89081401974861
O          -1.96026994428342    2.02346681345241   -0.48441412780037
H          -2.89795162014749    1.02803807251773    0.76227340991174
H          -1.16917232186344    1.78891928340622    0.02801584824501
H          -1.82239489802495    1.69134958568090   -1.37472773347884
O           1.00350115965046    1.70609933096089   -1.22707995817822
H           1.54479067168579    1.26312743368490   -0.54039571202849
H          -0.06721834648986    0.47671950407445   -1.72740418742869
H           0.78015656043563    2.57081023151584   -0.87739776192121
O          -1.52585001551139   -1.42245509752023    0.09058069810925
H          -0.65643745375740   -1.51019446930472    0.62900206087727
H          -2.12864969724707   -0.76508570248685    0.62586095937181
H          -1.20012741301365   -0.94429060784746   -0.81095563356720
N           1.67317530255705   -1.75444003346211   -1.45202955865821
H           2.43609184370919   -1.10452596327790   -1.60051173136150
H           1.98716083327457   -2.67366041990929   -1.73699459806732
H           1.50648672000516   -1.77564748627075   -0.44777010876215
