    26
        -50.45364687  Gyration_radius:  2.37550843825 Dipole_moment: 2.958
 S           0.64854221589752   -1.61860503732009    0.43250228670456
O           1.92951331907554   -1.08647192776737    0.83465918266548
O          -0.39854050412203   -1.35855195064530    1.42523449199743
O           0.22015433675540   -1.21719795587453   -0.88907764989752
O           0.81016877247837   -3.19339895400394    0.37357172425354
H           1.27639441442225   -3.38732769573075    1.17995410478634
O          -0.35918491872793    2.00202323909818    0.18257300282315
H          -0.09221131981962    1.93931281701110    1.13910518464562
O          -2.26687867348739   -0.95457975739407   -1.94509172107492
H          -1.51628242908665   -1.54034730180327   -1.75994717961010
O          -2.05609128120363    0.17504367534509    0.31648281428804
H          -1.39369289967041    1.00609722395414    0.18378811696540
H          -2.25163264631038   -0.25556561271736   -0.61001217989910
H          -1.47482913447407   -0.50103931378105    0.82495362773017
O           1.95334352203057    1.03113568790240   -0.73980899106525
H           0.45993648213138    1.71125777722994   -0.27625244789138
H           2.04619813262933    0.26604872707951   -0.13423817915160
H           2.20916036041388    0.71857743551146   -1.60969174812931
O          -0.38511169803182    0.79466349828816   -2.71821524895090
H          -0.33514508705305    1.65094565533816   -2.28660075257908
H           0.05373879507174    0.15815535004169   -2.13015974256522
H          -1.88519949206264   -0.27144335743836   -2.53092221869037
N           0.57788896109444    1.16130995375211    2.51051476719887
H           1.58605408115783    1.17529657145925    2.41114279975777
H           0.28736163564131    0.19952248652037    2.34535088365204
H           0.35634506526194    1.39513875595738    3.47018505200145
