    26
        -50.45364710  Gyration_radius:  2.37534250743 Dipole_moment: 2.948
 S          -1.52849314744730    0.03175035465867   -0.94116322196627
O          -1.74121723310209    0.99496460821324    0.14345914744485
O          -0.90149989003054    0.63416396716937   -2.09429927839890
O          -0.86988614453061   -1.15975830610982   -0.45370495325420
O          -2.97224358006865   -0.43149440581574   -1.40053365141847
H          -3.28998317686023    0.32105915322399   -1.88833747450593
O          -0.78947675179556   -2.25835387074121    2.03116463972324
H          -1.26481386118353   -2.19492345660418    1.18845547109327
O           1.77929829898974    0.67811089074979    0.73400319005486
H           1.51251241405466    1.59924939082500    0.46867887284750
O          -0.29316580359949    0.22963072653970    2.05292624964289
H           0.64863008005189    0.35817500015075    1.55965312251900
H          -0.96400327873504    0.57654330214209    1.35786896354083
H          -0.48680071763687   -0.78721005084461    2.15592563275993
O           1.41043223311027   -2.43211155735247    0.50730987934218
H           2.11250070422396   -1.78827958299252    0.62806511008214
H           0.08342846514188   -2.61746775633022    1.77573997033006
H           0.72964212771328   -2.00565839787290   -0.03893139972447
O           1.52927834696194   -0.32584737142094   -1.72940372871773
H           0.65950509172551    0.06231760424600   -1.96097508705047
H           1.77602982794111    0.20919688603958   -0.12995732228255
H           1.51168805103405   -1.23211693988226   -2.04275328523802
N           0.53009313450061    2.75656038928266   -0.32628117426300
H           0.45511528060712    3.72980086217334   -0.05826110915633
H          -0.38874531109736    2.32991226324441   -0.22445193674750
H           0.75217483993994    2.72178627734367   -1.31419662665890
