    26
        -50.45567416  Gyration_radius:  2.46119414053 Dipole_moment: 5.088
 S           0.17373624079759   -1.24835086115623   -1.48257580737045
O           0.81955837251725   -0.20994234336597   -0.71778093525197
O          -1.26608161982259   -1.42183514236648   -0.95955919337913
O           0.15880398897105   -1.02644531380876   -2.89613294776266
O           0.83617056316814   -2.59293929863605   -1.16878521638909
H           0.77699910095467   -2.66172508408525   -0.12730421997234
O          -0.99461181180212    2.50285593837970   -0.53308552535263
H          -1.70167925458621    3.09394589744558   -0.79712375609816
O           0.33499106627159    0.10392998919011    2.56884155826632
H           0.28391573468328    0.47671015585687    3.45018305833813
O           1.35040010290093    1.84907019441914    0.88379421531278
H           0.81673720855814    0.77175592465928    2.00913837967952
H           1.40905617918107    1.13578278293265    0.22505341484016
H           0.60526826659117    2.38296826266263    0.57526370858513
O          -1.75105661493707    0.28818715779031    0.82387502952024
H          -1.51818140481689    1.12065365704692    0.35906279708977
H          -1.49870563239175   -0.73440737658925   -0.22335504826817
H          -1.05678397172858    0.16248901355221    1.50174220667474
O           0.03942443107723    1.64813698937259   -2.83091571039160
H           0.97588613683259    1.85863959359279   -2.83538029535798
H          -0.00508730453011    0.68021636419922   -2.96042658003169
H          -0.60818736511413    2.15144704915180   -1.37364696841461
N           0.51546709144737   -2.59924245617341    1.36933862020430
H           0.61170937703848   -1.64344234048760    1.70682904182235
H           1.13232761866495   -3.19499855218426    1.90605182502345
H          -0.44007650992647   -2.89346020139738    1.52689835868404
