    26
        -50.45567402  Gyration_radius:  2.46121428013 Dipole_moment: 5.090
 S          -0.35306155956123   -1.55324675723744    1.11786697723467
O           0.42806076977859   -2.08694030413532   -0.09928330660205
O          -0.56344501314863   -0.13685649151505    0.94534861060601
O          -1.54936264287802   -2.31559690312445    1.30566200611270
O           0.60508522265196   -1.78222300188459    2.29035602993595
H           1.43964682525709   -1.20227834084759    2.04587425249647
O           1.79298088671827    1.84043012610215   -0.34941431376147
H           2.22629188049923    2.57765313940712   -0.78199907734579
O          -1.79164384347247    0.58282148590006   -1.99675337293224
H          -2.22586218197121    0.38412906452149   -2.82800602878749
O           0.77472062400860   -0.24445907767041   -1.77994330806742
H          -0.14609627005856    0.06786491997571   -1.91387787481065
H           1.22712923879566    0.47282203933734   -1.29192331431780
H           0.58935113774066   -1.35398915667762   -0.81034031538088
O          -3.17211372100089   -0.79651914956313   -0.18816085256082
H          -3.48963562790730   -0.18329179557899    0.47849133366193
H          -2.27373250480515    0.06013719156862   -1.30838200205354
H          -2.64729280905845   -1.45865342789250    0.30348629261494
O          -0.77199263072719    2.32898423713110   -0.03602764409213
H          -0.82447290170853    1.53793409478064    0.52750635189096
H           0.85718754797596    2.12996908443832   -0.17147647150035
H          -1.19689034286033    2.05064795043649   -0.85913003240859
N           2.57165640971719   -0.36863943781233    1.46563149786415
H           3.22892952258573   -0.04945654172902    2.16537179160257
H           2.20004778371260    0.44242140403083    0.97494532362942
H           3.06451418971930   -0.94366433195807    0.79417746697086
