    26
        -50.45567411  Gyration_radius:  2.46108360831 Dipole_moment: 5.093
 S          -0.17119688873724   -1.66697330473911   -0.98914583170058
O          -0.71046179657724   -1.96578894350448    0.42377762181821
O           0.29156535054313   -0.30142680406837   -1.02658448968484
O           0.81195412398400   -2.64016289883761   -1.35504308275923
O          -1.40635907410813   -1.80605551404644   -1.88369498647112
H          -2.05744008889423   -1.07161697702774   -1.52414744542679
O           2.28771054661245    0.39741146049442    1.46528092205430
H           2.87428246026785    0.18529610286113    2.19327713939781
O          -1.34889978592837    2.14724408829971    0.53910641521303
H          -1.54577919019984    2.97804897981751    0.97423516470519
O           2.96149860801170   -1.32648014009731   -0.44621912598888
H           2.50315255243861   -0.24890670779327    0.74750248545025
H           2.23857359395994   -1.92049093588670   -0.72919330434611
H           3.19559554867572   -0.82573051529658   -1.23091208686447
O          -0.35160686093468    0.02310516079305    1.92509496391171
H          -0.57979590084047   -1.16737177295903    1.06753006205395
H           0.61134399609781    0.17636011538996    1.81314107849022
H          -0.79126882503866    0.77245372157210    1.47500873935265
O           1.10869696703026    2.15234984187443   -0.39606360879926
H           0.90102923904684    1.32616450695719   -0.86571447469851
H          -0.45027314617100    2.25413280309194    0.12375184348047
H           1.67050882695731    1.86257258713319    0.33592720235712
N          -2.87376324959226   -0.01217309113426   -0.79999348437115
H          -3.62386176752700    0.36719077917732   -1.36312629306993
H          -2.27373416357496    0.75345048205789   -0.49909427300851
H          -3.27147106549982   -0.44260302412689    0.02529882890381
