    26
        -50.44721209  Gyration_radius:  2.51046341818 Dipole_moment: 3.930
 S          -0.91973265240521   -1.53222511973513    1.15115999421900
O           0.27293069722797   -0.78666678195837    1.52384507369318
O          -2.08779108484047   -0.63437508517126    1.09335314851174
O          -0.75857728247566   -2.32486227289335   -0.03373753675359
O          -1.23411694705846   -2.50995607219417    2.35082686871111
H          -1.46286606208756   -1.88824618778306    3.03350939027144
O           0.00200574325984    0.81964947587354   -2.01211391761158
H          -0.06769544413480    1.02892424309531   -2.94478352272809
O          -1.40736211179764    3.02637871026514    0.64115129167514
H          -1.24339724368126    3.87126841767220    0.21939244636989
O           0.97920977895951   -1.50201102196391   -1.86549228408186
H           0.31921602710469   -1.95772141380397   -1.30457511711871
H           0.40241749171132   -0.13161985081650   -1.97359245144472
H           1.76975968800399   -1.41318195743789   -1.27804562840950
O          -2.19045729981858    1.01403680055096   -0.71236434513367
H          -2.19260393045329    0.24010538715843    0.05550573877385
H          -2.02251551856999    1.87361743984129   -0.17849395174282
H          -1.34352411575971    0.87716411661945   -1.27433455207062
O           0.80376623261229    1.64683433750329    0.56970635276447
H           0.82961005812360    1.43163994450147   -0.37256109525245
H          -0.51825810654113    2.59174643240106    0.77022324827812
H           0.64745977617403    0.79260838727304    1.02337480998287
N           2.77275837568852   -1.16257278501417    0.11747066764248
H           1.98335178454619   -1.10865001853931    0.76109786326037
H           3.31800059622710   -0.31766464890947    0.23606654018334
H           3.34841152124053   -1.94422038075467    0.40341095631996
