    26
        -50.45364688  Gyration_radius:  2.3754732574 Dipole_moment: 2.953
 S          -1.54512743413839    0.82804908183374   -0.38808778307185
O          -1.69475723621365    1.35061576698579    0.94990584732345
O          -0.26742500844510    1.11056907917260   -1.00368561420289
O          -1.86035177925010   -0.60161004158871   -0.46609529833147
O          -2.62674636622702    1.56126796185932   -1.28382344430872
H          -3.40680554460961    1.52928978394097   -0.73997137613491
O           1.32954155004772   -1.10380631820118    1.08672703837554
H           0.57169436940844   -1.42540214340683    1.64557572042526
O           1.11544672550487   -0.22404531914823   -2.92457683724303
H           0.43830790869303    0.44084340105324   -2.72527519830706
O           0.86521824838190    1.48146972230762    1.57723871937700
H           1.29344728631659   -0.13275811783055    1.23483666170933
H           1.20540157134055    2.27523537777733    1.16001538104622
H          -0.10422018909739    1.48863367071975    1.43280401885502
O           2.51161930900368    0.96165325696807   -0.96492233587464
H           1.57843918705706    1.18530917810109   -0.81380564717902
H           2.79659357682279    0.43800925256490   -0.21220151270630
H           1.92306477476182    0.14006544944863   -2.51096245522098
O           0.28514145965126   -1.76052592296882   -1.08423990583875
H          -0.64636514047450   -1.37059636214599   -0.90026787659115
H           0.66705309497204   -1.22288639328053   -1.88858173546030
H           0.83042515527201   -1.50186677584532   -0.19946517177554
N          -1.04699917524721   -1.42085621261961    2.20758341271684
H          -1.15645034445180   -0.62419651179138    2.82390665837467
H          -1.50988110133328   -2.21225324047773    2.63667290193484
H          -1.54626490764184   -1.19020765361574    1.35069585216944
