    26
        -50.45364697  Gyration_radius:  2.37558731245 Dipole_moment: 2.956
 S           0.67435043303226    1.66121768228502   -0.09058134074949
O           0.67519101905626    0.82116427641575    1.08639251650664
O           1.65233508586184    1.29630438462995   -1.08876301819319
O          -0.67556409607380    1.77853240868804   -0.65043901538065
O           1.06311415349896    3.11153423775386    0.41494371868135
H           1.25323604460901    3.57358928268986   -0.39476079605131
O          -0.67136490891960   -1.80482565138588   -0.67858611341701
H          -0.74452519636694   -1.40976689097850   -1.58898811541191
O          -1.30750283446259    0.21500405058710    2.84596891834175
H          -0.59896743831409    0.83242881765040    2.60786410980676
O           0.47356578948607   -1.69818871020122    2.24829080266341
H           0.25267968887740   -2.34725852831771    1.57603737325771
H           0.76291561835609   -0.89728951079973    1.78064537644339
H          -0.83741454282860   -0.63142482964654    2.98365517495485
O          -2.04171667017834   -0.03641401772628    0.43033705257236
H          -1.58427313989231    0.77186963593556   -0.00679874568230
H          -1.49517695643045   -0.86529612098604    0.02860952354658
H          -1.84522204078523    0.03867026939166    1.44898814428008
O           1.92762975263657   -1.24090192693494   -0.41791356164521
H           2.50651211667919   -1.25726828107114    0.34659012109802
H           0.28746053833272   -1.70139065380742   -0.48878724368326
H           1.90993909406707   -0.31185418313894   -0.72990321232454
N          -0.48890510749578   -0.20216399701103   -2.77670546170296
H          -0.57122110831428    0.64137712236538   -2.21242651329385
H          -1.05703617886982   -0.08118967416970   -3.60574595548501
H           0.47996087447959   -0.25645921214338   -3.06792373908315
