    26
        -50.45116933  Gyration_radius:  2.66196537771 Dipole_moment: 3.384
 S          -0.14380287501988   -0.91147749720522   -0.60209252770792
O           1.18663449468372   -0.47185333842524   -0.95622531666340
O          -1.15054015761679   -0.38191302001311   -1.61617887577748
O          -0.28811180781314   -2.32969034293694   -0.44745003180049
O          -0.57568605570515   -0.21292299278098    0.69615762400173
O           0.58481408092772   -3.57148324019591    1.72894493654595
H          -0.09095008467563   -4.19011666924900    2.01113059792705
H           0.29703522266090   -3.23385109870955    0.85498027114434
O           2.99863451131939   -0.90033946765984    0.96198533278847
H           2.44846180470970   -0.67143649322569    0.18702703329198
H           3.34218004925990   -1.78077404813255    0.79574682672703
O          -0.49120518133033    3.51902773303477   -1.21489012197121
H          -1.19097195367571    3.04765797238385   -0.69044668984163
H          -0.93612931402296    4.20278419601657   -1.71823400303821
O           0.24586971358003    1.41805245756918   -2.62335255753703
H          -0.66397569550291    0.39592074947717   -2.11445527949910
H           0.04937817530195    2.25871959006333   -2.13030617010262
H           1.02358625869318    1.02424988631022   -2.20257453141057
O           0.87022499812945   -1.05166546953014    2.52184839195973
H           1.76450774191777   -0.87663737483305    2.13971585513194
H           0.02167392171637   -0.53701625290762    1.53129506945675
H           0.75682226804408   -2.02740408934914    2.44346863050006
N          -2.36583973341860    2.02944049521037    0.00270047795263
H          -2.95217414027924    2.36346773652603    0.75769705654421
H          -1.77552209693029    1.29017873661283    0.37547752575438
H          -2.96491414494361    1.59908186194575   -0.69196950437080
