    26
        -50.45364651  Gyration_radius:  2.37558421149 Dipole_moment: 2.953
 S           0.65860476030252    1.08992638607619   -1.26481567844957
O          -0.62173747085127    1.23975810496537   -1.91627641772831
O           0.64589020082878    1.36529195901319    0.15471975405125
O           1.27538557996651   -0.21108602866880   -1.54082744446882
O           1.62095664116734    2.17314733592231   -1.90571224016901
H           1.43340410943013    2.09853230289013   -2.83552953360834
O           2.22981732356633    0.44431627896896    2.16623870372890
H           2.11431716231961    1.11258606716538    1.47362689897378
O          -1.11011616984836   -1.51902412033584    0.79140572259309
H          -1.22638784366918   -1.88289631210523   -0.12746723577197
O           1.38162597851553   -1.41665321667597    0.66461751217947
H           1.44408011202060   -0.97734689985133   -0.26090648452520
H           1.78572027083446   -0.73212744783963    1.33560228494560
H           0.32492337016030   -1.48223665101569    0.82608643047340
O          -0.36352957734813    0.86785807012737    2.69697743018761
H          -0.22016289592459    1.15574679887711    1.78017603255405
H          -0.97161563722253    0.12551144009691    2.66255691119589
H           1.45379507023199    0.57837788717808    2.74631167875169
O          -2.15338641286320    0.86898893595842    0.20038433963477
H          -1.67212701154401    1.03788656172760   -0.63663750575851
H          -1.52082309787181   -0.62962586570295    0.71095790445136
H          -2.15101676972191    1.69714964986721    0.68412537817841
N          -1.12834697947844   -1.82822691200646   -1.83686272364270
H          -0.26042025554795   -1.31087385717754   -1.96238651479277
H          -1.87066233159471   -1.22330429738188   -2.16780032550275
H          -1.09818811588686   -2.64167618004844   -2.43856487752990
