    26
        -50.45364691  Gyration_radius:  2.37563416387 Dipole_moment: 2.956
 S           1.47264817769991    0.61015258471659   -0.82681424332209
O           1.31129032668832   -0.71885065274864   -0.28019492300194
O           0.77775903872956    0.83464681537267   -2.07287491174864
O           1.15982286829898    1.63189493233234    0.17695043332254
O           3.01869170108854    0.76392770035442   -1.13681111290066
H           3.04863684080963    1.54686319131018   -1.67658706765493
O          -1.96807119023415   -0.07835626817980    0.53897014577351
H          -2.07208742501902    0.85467681553419    0.20910133218933
O           1.42362408830515   -1.61581185425728    2.28286886840283
H           1.91669009672593   -1.40674076485651    1.47453579995684
O          -0.04098231698114    0.44137087637808    2.03948703862759
H          -0.89730503163669    0.14248450749024    1.47003711120352
H           0.53752230265033   -0.39734548063419    2.24942344598353
H           0.49892147536863    0.99612311450250    1.36539500645201
O          -0.34120748699736   -2.76737624351959    0.62404222783702
H           0.16006255232474   -2.12745413590891    0.09208061487485
H           0.80457178499712   -2.31739279507776    1.99883810805231
H          -1.25336127992181   -2.46752103782636    0.63156186439600
O          -1.07515165034195   -1.02364982783436   -1.79554242909507
H          -1.68452708359822   -0.55100357493073   -0.27482708508357
H          -0.42000497438295   -0.32353026019698   -1.99891345308021
H          -0.65901598362582   -1.85667746381419   -2.02520671078979
N          -1.56872046148866    2.26950772351035   -0.61543098441197
H          -1.92364344725687    3.19946911944682   -0.43121779543990
H          -1.65454745789725    2.09440581548979   -1.60963035145481
H          -0.57161544434875    2.26618716337964   -0.40924094902037
