    26
        -50.44195661  Gyration_radius:  2.44544529489 Dipole_moment: 4.533
 S           1.82379219783612    0.20870191691882   -0.54502902593024
O           0.97899962220760    0.25963010793553   -1.75319742131517
O           2.44242110862843    1.48836780747041   -0.28405501586736
O           1.10764625237544   -0.32592244773597    0.58777786016995
O           2.99072601906042   -0.79792297873383   -0.87726674186810
H           3.53165363254783   -0.32252266458365   -1.50027806987260
O          -2.33496116262015   -1.49891698374759   -0.40081134008438
H          -3.27939240087782   -1.63310659221656   -0.30930976078191
O          -1.32218479919674    1.98363046721237    0.98063204238832
H          -1.67446910537096    2.87486804278365    0.94569988053097
O           1.10539930661527    2.18235232202801    1.84295741729438
H           1.27894278712248    1.40950040148628    2.38707707165240
H           1.67422241407219    2.05741812811471    1.04723295409928
H          -0.37651148779278    2.07522568948058    1.31523439158130
O          -1.23225682803890   -0.73933937162972    1.83030137588233
H          -1.96065639253387   -1.37425610250781    0.51711901906603
H          -0.31421688066864   -0.74270623641300    1.50105415064919
H          -1.47357509844349    0.19353995706556    1.88502308936571
O          -1.37294141102421    0.70245409258220   -1.25980287935011
H          -1.35158160470999    1.23619231930052   -0.39566298412167
H          -0.32306531311125    0.50612552863838   -1.52712834710816
H          -1.78522901891032   -0.20731306892720   -1.02560793825267
N           0.54054983070233   -2.65284641715158   -1.29786892086525
H           0.72414184007238   -2.02894901413921   -2.07422782557773
H           1.04966712358054   -2.27790794100753   -0.50688910354391
H          -0.44712064152245   -2.57629697222809   -1.08297386814311
