    26
        -50.44195666  Gyration_radius:  2.4454178889 Dipole_moment: 4.532
 S           0.31177662148878   -1.77797865907254   -0.63877826540929
O           1.63940918721694   -2.31707236159699   -0.45102265565131
O          -0.48370743612998   -1.87222585713781    0.59983741002394
O           0.30515690773442   -0.44038158254895   -1.17981277025629
O          -0.41008194882929   -2.70908852760634   -1.68628713185280
H          -0.22380364017448   -3.58965287829470   -1.37543315359929
O           1.82514275808035    1.27858406158970    1.29567196907028
H           2.45105575018340    1.37546821222363    2.01571672080623
O          -1.98427010713962    1.81746150653239    0.78652620996493
H          -2.26761936422575    2.62617014043632    1.21551729033717
O           3.01388761385705   -0.10412476185712   -0.53499228967914
H           2.62578373697477   -1.00826053154215   -0.46977152869481
H           2.71112202791150    0.22730297701436   -1.38464069631783
H           2.29915438712224    0.73679493089710    0.59110915548881
O          -0.41496529704001    0.16966016418574    1.94038447555700
H          -0.46932480461178   -0.77089762704239    1.37049643306778
H           0.48175541895306    0.58920278319618    1.71243665163617
H          -1.13079237238057    0.78820720445936    1.54352181506611
O           0.07297284974716    2.19793241344095   -0.76065929885410
H           0.11256384277450    1.28812411226091   -1.10979508499303
H          -1.30985076172814    2.06766591440677    0.09311667640310
H           0.80628594222560    2.25685469641922   -0.13594839950063
N          -2.72254434691445   -0.75279596473430   -1.01759962249597
H          -2.77918610161862    0.12795458394631   -0.51904215758944
H          -1.87841276622877   -0.72759316984401   -1.57635852997458
H          -2.58150809724737   -1.47731175973676   -0.32419322255649
