    26
        -50.44195662  Gyration_radius:  2.44547936571 Dipole_moment: 4.533
 S          -0.10704271163812   -1.42738831857857   -1.27199041937203
O           1.19858553087616   -0.76241154284690   -1.44249959581515
O           0.05152891088186   -2.77059788053318   -0.76297434270656
O          -1.02135462344254   -0.62297192550605   -0.49811373438790
O          -0.71442650750626   -1.56186404065993   -2.72052951563459
H          -0.18029958202131   -2.23542241462833   -3.13011210662451
O           0.46351531735380    2.74894856347709    0.29870076491783
H           0.66210894326999    3.51965475570050    0.83244082683859
O           0.58521643232702   -0.46797836520237    2.46639154244268
H           1.14922210214668   -0.81957467864451    3.15768298734989
O           1.83562380445212    0.60557463162299    0.47947830885342
H           1.59019781210917   -0.00273227457953   -0.40490626972300
H           1.37208426171660    1.51071674427945    0.34381805308971
H           1.37093929800568    0.16316605090886    1.26709333279721
O          -0.88519898391965   -2.42736988043278    1.64487841984673
H          -1.74557220676111   -2.06344769487662    1.41950854076245
H          -0.49690945758470   -2.69784810123769    0.77972537217971
H           0.01999277955544   -1.24086783049569    2.15372151056686
O          -1.39272320062313    1.26953636453311    1.36491371312298
H          -1.45212463463734    0.62913517820979    0.63172758591454
H          -0.92182728971539    0.80224122553647    2.06588544430139
H          -0.35859481137511    2.32652924666609    0.67798683586248
N          -0.35932778871450    1.51586274013489   -2.56661023157531
H          -1.01013277521901    0.83317572336188   -2.19806256346301
H          -0.14806774497850    2.16469914169137   -1.81700151252584
H           0.49458711544436    1.01123460209964   -2.77115294702262
