    26
        -50.44195663  Gyration_radius:  2.44548034853 Dipole_moment: 4.533
 S          -0.20585862467483    1.13877790873435    1.52573236263246
O          -1.42010273293589    1.91884523403612    1.60071627872228
O          -0.43583588253380   -0.25185140152462    1.96079249858398
O           0.43699208888592    1.19750358614671    0.23528136076382
O           0.79475006135586    1.75840319272803    2.57456157739230
H           0.26659879856674    1.86186069089859    3.36010106142104
O          -1.89578126157661   -0.25039640424068   -1.72854004496995
H          -2.79695509124615   -0.45735365188271   -1.98284914699201
O           1.34961015069103   -2.24772740510448   -0.99359670465990
H           1.45848501298641   -2.95475477384103   -1.63124306136449
O           0.91259467001435    0.04706792346251   -2.13971329167579
H          -0.01482107310594   -0.01359268872778   -2.39987377194102
H           0.90984517016938    0.57625604963965   -1.32046302478096
H           1.35320733727523   -1.38609636164332   -1.49940430881660
O          -0.90311563440853   -1.77188496966283    0.10548021850167
H          -1.32517134729463   -1.17959235346535   -0.60373321484426
H           0.01243555193156   -2.05287126907549   -0.26242894950314
H          -0.70175458304168   -1.12149648032004    0.97086682177375
O          -1.89652906710795    2.21180433963002   -0.94489369178100
H          -1.84943634276368    2.17059828986273    0.03923269001939
H          -1.05661327737758    2.59588127385098   -1.21039108403484
H          -1.91033212195521    0.70943407142901   -1.42341056483791
N           2.49189015527023   -0.62865342202571    1.55201432855676
H           2.23542051800963    0.28907356081573    1.20935089206369
H           1.78546928504497   -0.88487974646547    2.23094384903077
H           2.40500823982374   -1.27435519324823    0.77546691075623
