    26
        -50.44195665  Gyration_radius:  2.44545618134 Dipole_moment: 4.532
 S           1.15487847824909    1.37353364932209   -0.66819542428968
O           1.54086977094832    1.28479766546463   -2.05802601461239
O          -0.19711225268467    1.94559436326205   -0.52408399321066
O           1.28873420672016    0.12742864558901    0.04680977256495
O           2.13435041685690    2.40743571944156    0.00781463142183
H           2.14398574783697    3.14218991307536   -0.59779344248423
O          -0.95519220272667   -1.80545807041597   -1.57234814815169
H          -1.44301309078990   -2.09117965757812   -2.34693676346782
O          -1.82093165919556   -0.65061486466839    2.03002082741519
H          -2.51665334196956   -1.19728311617263    2.39809463729432
O           0.12899800268539   -2.07051105545135    1.05398139624232
H          -1.04548880884869   -1.24805631276923    1.83024184669481
H          -0.22807552431831   -2.37983971228113    0.21238022849393
H           0.70296866803890   -1.31696384030979    0.82172609124229
O           1.45352215444352   -1.30246758455240   -2.36054215210756
H           2.04588559789089   -1.55594862864027   -1.64758656414900
H          -0.02042813422310   -1.61064119118347   -1.89311497712960
H           1.51485281206927   -0.31888521973885   -2.39500679954231
O          -1.94408796997395    0.24529284738046   -0.35569326840004
H          -1.97033724329110   -0.03083554729823    0.63206343228372
H          -1.18982417777909    1.04377218416448   -0.43307794725275
H          -1.56923316469926   -0.55062138516430   -0.86366861037126
N           0.28187343616721    1.76605808798950    2.41159660701859
H          -0.42563862544835    1.06202913230088    2.58839831585794
H           1.04790623916644    1.30807705136590    1.93323802769894
H          -0.11280932512386    2.42309692684137    1.74970829092397
