    26
        -50.44721166  Gyration_radius:  2.51034990855 Dipole_moment: 3.933
 S           0.64899708035198   -2.02087376750325   -0.13343279875961
O           0.10513400861549   -1.22236481121110   -1.22145231365941
O           1.93456232784921   -1.45957584222104    0.32087023750710
O          -0.27886100641871   -2.24474981935879    0.93766267636469
O           1.02896440700485   -3.42469460607496   -0.74884231042970
H           1.74722537785576   -3.18002498641420   -1.32252633285248
O           2.58439328998783    2.15102831759701   -0.47790888109251
H           2.60155945788042    3.10622214095203   -0.40198919021448
O          -0.52001245616310    1.49984995059343    1.48311142512020
H          -0.76748603864611    2.02507081123019    2.24562326807379
O           1.90371491091735    0.68758677987845    1.49442715851621
H           0.91917234453273    0.96877466673726    1.55298451731599
H           1.92687335566909   -0.30070852193145    1.03493049964431
H           2.31329361582954    1.29184173370293    0.77390008164677
O          -2.15691752121361   -0.41691749656554    1.36693327142307
H          -2.53157337611477   -0.38199155811323    0.45248582928932
H          -1.55479346376804   -1.18823967382304    1.34576385509138
H          -1.19931651116530    0.72249184347476    1.45334089928152
O           0.19739445316120    1.44334655040634   -1.25068568095848
H           1.73501719844883    1.91443378143400   -0.94570822055149
H           0.18865587772710    0.46914200817534   -1.35456258788500
H          -0.29442697742942    1.61494329053714   -0.43613431435298
N          -2.68480185461092   -0.45947854557204   -1.27616973041718
H          -2.75807093578239    0.37780678906134   -1.84074895545741
H          -3.34210728708255   -1.13667416791115   -1.64142953792309
H          -1.74659027743598   -0.83624485707447   -1.41044286471836
