    26
        -50.44195659  Gyration_radius:  2.44548788981 Dipole_moment: 4.534
 S           0.79624870691165   -1.20628081829210   -1.25608739200194
O           0.17081369167167   -0.10629744677393   -2.01428859247291
O           2.23612356261878   -1.17155605234109   -1.37398902258235
O           0.33152223433864   -1.24836823571000    0.10929533421315
O           0.31777355230565   -2.53676804267086   -1.95342579639554
H           0.79301062976374   -2.54539069971187   -2.77853456800035
O           1.43553783293278    1.72231390464541    1.27181810451016
H           2.05578738541385    2.45254944402724    1.31267621169140
O          -2.38098554004012    1.30040417007916    0.70764120259248
H          -2.86626156083514    1.97363317682391    1.18683221015336
O           2.84463895984402   -0.43212777140939    1.05011014186128
H           2.38706968702056   -1.12347457040849    1.53602810807787
H           2.76293413472080   -0.69909391478085    0.10436786675423
H           1.99650182777102    0.89038604456469    1.18322193167110
O          -0.67439730728858    0.05443546155555    2.22611992475509
H           0.05197305480232    0.68570285729785    2.29932028541758
H          -1.87541052386985    0.76111322583447    1.37980781920678
H          -0.38244270707107   -0.58796640086372    1.55284625953816
O          -0.29047965646670    1.86261655985951   -0.64255738530320
H          -1.19231035737985    1.68125087252362   -0.18835259156750
H           0.41047454246362    1.82629351615499    0.09185247811724
H          -0.09573113302504    0.99953659322298   -1.29790293954264
N          -2.42661974492865   -1.31028379406834   -1.18709060290677
H          -2.71375766959523   -0.53873329041979   -0.59567812606481
H          -2.01189889119719   -0.90781736291803   -2.01870727592464
H          -1.68011471088484   -1.79607741622261   -0.70532355581557
