    26
        -50.44195659  Gyration_radius:  2.44548338824 Dipole_moment: 4.534
 S           0.61981377320905   -1.25699780319998   -1.30507117507092
O           2.04190386530471   -1.51062367146139   -1.34545773218332
O          -0.02754196868841   -2.01251569953088   -0.21599761237819
O           0.28666458764822    0.14608176776046   -1.25579398354816
O           0.01998743671524   -1.83267513825981   -2.64455171911938
H           0.41350087473621   -2.69669278072238   -2.71766408606422
O           1.62346436297891    1.03603738803952    1.71333284236927
H           2.27560694898317    0.97879710926836    2.41407285418263
O          -2.24427816326203    0.85427984480895    1.44751305107093
H          -2.65183042622936    1.33918762167309    2.16661115011323
O           2.91081631223190    0.80209518845089   -0.51480223827313
H           2.13707479831516    0.94123355200340    0.85203255590389
H           2.72766182881878   -0.11588971148703   -0.82482732479812
H           2.47217178002637    1.36558282521104   -1.15787061088814
O          -0.27020327252452   -0.71377501410518    1.83955503886507
H          -1.13142534108040   -0.16826062194611    1.72493295932583
H          -0.17640944673039   -1.33614656288509    0.93606027366558
H           0.49554159542405   -0.04705007609071    1.80676249502100
O          -0.45540301036074    2.27270251071420    0.19913848056832
H          -0.25708102611589    1.61142336203311   -0.48977567242367
H          -1.70039506150851    1.50483044114395    0.91905626331269
H           0.30111580002765    2.24310115946148    0.79770095924829
N          -2.58312263253314   -0.88107979769532   -1.25059773194425
H          -2.77883746688009   -0.30908368029983   -0.43698115722332
H          -1.81485018865231   -0.44546277574234   -1.74591833984450
H          -2.23394593985834   -1.76909941714676   -0.91145955988120
