    26
        -50.44195661  Gyration_radius:  2.44547355398 Dipole_moment: 4.535
 S          -0.98478781974338   -0.92703500861146   -1.35560128852052
O          -2.39439947790447   -0.62658289926643   -1.46071606144395
O          -0.16666580871532    0.10860810175179   -2.01442391114627
O          -0.54852344246227   -1.17470020775613   -0.00270812725831
O          -0.74302436661888   -2.25250057832972   -2.17419442548896
H          -1.20405584294505   -2.10170538355207   -2.99361007840270
O           2.56653829513371    0.78835505672509    0.80776647340500
H           3.15861838506416    1.31849830134094    1.34323418182250
O          -1.12045369586086    1.82710197846797    1.43223794955768
H          -1.60194236039849    2.64895778619780    1.54328770689912
O          -2.88633221500608   -0.01454011713940    1.02456563753127
H          -2.56301293658579   -0.81718280319506    1.44252577464987
H          -1.81895949696401    1.11924255452107    1.27194699235841
H          -2.84380808845576   -0.20470009554698    0.05791553646172
O           0.65124196276140   -0.26792794728879    2.21724979673034
H           1.96683585710514    0.28843715249989    1.43120469094039
H           0.04744850336360    0.47281769321909    2.35216105085561
H           0.25683973631488   -0.78470912591705    1.49019132738307
O           0.62204221698980    1.83223400257689   -0.47229974363678
H          -0.08151051448726    1.85431259582328    0.26019614165940
H           1.47298870084983    1.45351137917165   -0.04220985088598
H           0.28412271520908    1.08028762345825   -1.20216147016116
N           2.16779633465989   -1.60727148484898   -1.31604959809318
H           2.58125206379245   -0.95534190034382   -0.65913711540491
H           1.34184486628266   -1.99372458987655   -0.87577421986621
H           1.83990642862490   -1.06444206408190   -2.10559735994937
