    26
        -50.44195660  Gyration_radius:  2.44547295752 Dipole_moment: 4.533
 S           0.66040168044092   -1.38946131773354   -1.14035265994776
O           1.90558939808642   -1.13507848034576   -1.82825232295169
O           0.89528793510202   -1.79757081693140    0.25759151793697
O          -0.27959443608272   -0.29839847191818   -1.22956261169493
O          -0.00032251868924   -2.63404449519796   -1.84727753291702
H           0.71352151458831   -3.25989535745044   -1.92122541955198
O           1.37986160306681    2.13720191970583    0.41567180897489
H           2.17200057781373    2.60093111197769    0.69331243119241
O          -1.70874601710113    0.55445574566950    2.15247840200605
H          -2.02293865925261    1.12177188888626    2.85800235201210
O           0.77501584937709    0.06633215770161    1.83322585522587
H          -0.22079952462802    0.18559350670551    2.04927979678345
H           0.84293758459563   -0.80067449779380    1.15797855398394
H           1.04602112102273    0.87679163363537    1.28391898329676
O          -1.41409900191844    1.84601229720281   -0.08717198851156
H          -0.58803534771851    2.32681689563851    0.04669378013173
H          -1.16923987530063    1.07036933204161   -0.62532926825431
H          -1.77883107620265    1.07078434869985    1.30003637726624
O           1.74831690399424    1.45709521040486   -2.04965474874376
H           1.53709563448934    1.87586199757643   -0.54432931744677
H           1.94647926608858    0.49139241612030   -2.02551759585476
H           0.89760795143869    1.51740876320503   -2.49253626032608
N          -2.06018960146698   -2.14339197993723    0.41885075313734
H          -1.83628738472770   -1.71908426540911   -0.47292786037488
H          -1.22453053129815   -2.63103627321578    0.71812125279125
H          -2.21652305571428   -1.39018328924077    1.07897573183541
