    26
        -50.45381439  Gyration_radius:  2.64784038816 Dipole_moment: 1.727
 S          -0.31524609060341   -0.53162682889029   -0.51291742188489
O           0.12418705204643   -1.95327169426108   -0.18455012953578
O           0.59568885866244    0.03490084642943   -1.46782594743263
O          -1.69298974286716   -0.70366443596391   -1.13107828050817
O          -0.43463985117961    0.22795289218308    0.71979061293247
O          -1.83859007400849    2.49066062047105    0.42953864258575
H          -1.25499415736389    1.72785116553746    0.60997551033836
H          -2.48256404067564    2.51599253158872    1.13970277607350
O          -0.23719544961809    1.78229216283007   -3.31867240702352
H           0.20725313794856    1.20920290217676   -2.66367216536360
H          -0.14060393819656    1.34572805577169   -4.16705411064344
O           2.20303277931476   -2.07220335694877    2.74336154650662
H           2.39796274495997   -1.35641648252735    2.08463233611750
H           2.61510651068603   -2.86980006471334    2.40716263466290
O          -2.49459188536957    1.49486805396229   -1.95118593769320
H          -2.36532405080613    2.03947616317563   -1.14144204510581
H          -1.76350307256502    1.74860344448801   -2.56311932163490
H          -2.10176988974630    0.21664904185045   -1.51162517929456
O          -0.38489189718176   -2.05331589522626    2.25883507038874
H           0.54447456025001   -2.12565270354472    2.60559500856126
H          -0.59157829507659   -1.10960426584425    2.25419625724363
H          -0.13553988262253   -2.13637822670225    0.80567819026527
N           2.43930920102351   -0.17962284742739    0.83636335612243
H           1.56293956666887    0.30830573506533    0.99282820050060
H           2.36733446493211   -0.56612463521497   -0.09825189807101
H           3.17673346138346    0.51519783173534    0.82373468187176
