    26
        -50.44195673  Gyration_radius:  2.44506918248 Dipole_moment: 4.533
 S          -0.01187268342156   -1.62741727233060   -1.00776140974261
O           0.34745570629073   -0.24651965662769   -1.22199195935541
O           1.12809880011485   -2.50141435460465   -0.85020667788518
O          -0.96103204999533   -1.77994214042993    0.11102278884696
O          -0.78166668586792   -2.11395511924571   -2.29461508862957
H          -0.85084347603020   -3.05635862714713   -2.17745832278128
O           1.88328066082900    0.49502027800432    1.68839737904351
H           2.41838577340959    0.28442405821718    2.45581318201432
O          -1.61582785117515    2.04180114297050    1.03710923271677
H          -1.76476810446988    2.78682348773667    1.62113927227071
O           2.95959266162730   -0.72535597541304   -0.31852011972827
H           2.84850643208811   -0.16161166214394   -1.08875059957059
H           2.31127984232946    0.01237616411477    0.91464923920788
H           2.37502300636531   -1.50017586753406   -0.49313586162661
O          -0.60989932763154   -0.14197243293153    1.89025081784608
H          -0.79925469307614   -0.90078507862304    1.11579088485072
H           0.37907993480726    0.08355024094123    1.83260695831865
H          -1.11469757220018    0.70130653051340    1.59550675029351
O           0.65436160795393    2.22209326356762   -0.22142497854630
H           0.53557732372566    1.42312431560218   -0.76808279712533
H          -0.81997194829864    2.25865595357951    0.47325702316211
H           1.29679384318088    1.96873008501076    0.45278416578941
N          -2.66820585364541    0.16337904969051   -1.36641719601983
H          -2.59199088598385    0.91181680752210   -0.68710405633384
H          -1.77873506380898    0.10211101084155   -1.84661759757076
H          -2.76866939711689   -0.69970421128163   -0.84624101944687
