    26
        -50.44195659  Gyration_radius:  2.4451565693 Dipole_moment: 4.532
 S           0.69347865544221   -0.14959414255444   -1.77821452231397
O           2.12147308111283    0.00416897447880   -1.93848389054990
O           0.32802641323074   -1.03630933961582   -0.70017155454051
O           0.02439947088798    1.15991869999716   -1.66209771785468
O           0.15486282932946   -0.79157307473919   -3.11352225683434
H           0.56174108676232   -0.27000021686537   -3.79849316213430
O           1.53606015260776    0.63281693437647    1.97014340733731
H           2.16298114221153    1.20783456869677    2.41282203063898
O          -2.31319703577823    0.50181852148705    1.50235194256656
H          -2.75569348830232    0.72225994017386    2.32327586957245
O           2.91005200745410   -0.87544494179199    0.38469911805119
H           2.08307953255281    0.05266164511432    1.35463267910113
H           2.48458972831361   -1.73691264231212    0.37011795349356
H           2.75761224541282   -0.50926723142820   -0.51812698582115
O          -0.51253077812535   -1.34819940465216    1.82662141205798
H          -0.27455850185045   -1.43009263593524    0.88434847524714
H           0.22210130354803   -0.86748935554117    2.22756934634342
H          -1.76492401108223   -0.31669803422224    1.66900671673437
O          -0.32108599152911    1.85224655318967    0.65597544688366
H           0.43038003083948    1.39931237656331    1.16816595730415
H          -0.18086218182737    1.58172718522510   -0.40189183694133
H          -1.18948631155721    1.39630037033566    0.95718750108179
N          -2.51388985289855   -0.39829031024791   -1.59068060921513
H          -2.75378462137929   -0.16740185876224   -0.63326415941371
H          -2.14472737752403    0.44392103029804   -2.01494549659297
H          -1.74609753785291   -1.05771360126998   -1.55702565420128
