    26
        -50.45381448  Gyration_radius:  2.64810964214 Dipole_moment: 1.736
 S          -0.48615960784011    0.09599376373616    0.62939186235992
O          -0.10572934050285   -0.66887478954367   -0.54582254867257
O          -1.67448560463209    0.98527704821747    0.28498228301408
O          -1.02650142686280   -0.85006277944008    1.68913318875271
O           0.56841120550418    0.90663832842831    1.17107119860764
O           1.47212142766145   -2.75707960408108    0.02467321579456
H           1.10217769357739   -3.51992771216781   -0.42358903861961
H           0.96447225515346   -1.98056204055344   -0.28245731641553
O          -1.63054964703639    2.01007072633881   -3.15939590138966
H          -2.12715451398000    2.79610711597811   -2.92619920893900
H          -0.77265487841399    2.06220903790583   -2.66390744613809
O           2.22264142589715   -0.03934330904151    3.05336525496871
H           2.04309439808594    0.46318431415136    3.85016049620414
H           1.73439115303389    0.40544405481206    2.33316046199821
O          -2.47548674826846   -0.09351859005572   -1.82036035940574
H          -2.26805966775720    0.64154407488026   -2.45752361740764
H          -1.69906956036587   -0.66846729507003   -1.82011012344970
H          -2.14818530388952    0.56229379913668   -0.53882113833008
O           0.83061354990537   -2.24487366266357    2.55772641315182
H           1.20005598097058   -2.58696261578951    1.71186880690897
H           1.46228072890181   -1.55171452668288    2.86416333856955
H          -0.26865661421916   -1.48679437868054    2.11245046475065
N           0.56876456857561    1.95371711482396   -1.59887906991924
H           1.47393814411142    2.30291594934568   -1.89144788725875
H           0.65186938853367    0.94833464292755   -1.48493228054576
H           0.38786101384858    2.31445133309692   -0.66870102857895
