    26
        -50.44195630  Gyration_radius:  2.44504618527 Dipole_moment: 4.529
 S          -0.09960679165074   -1.69990536061106   -0.87437178241378
O           0.34225159831675   -1.17968745870728    0.39678348977502
O          -1.36163232198833   -2.40035723737304   -0.80284964024261
O          -0.12637425851952   -0.65478300872636   -1.91487756911777
O           0.97526539158393   -2.75180173188226   -1.34740242933577
H           0.56101576716213   -3.18488581058541   -2.08741013563582
O           1.41424214658149    2.41795044878199    0.11261629154411
H           1.50044064426393    3.33474917515039    0.37793729845161
O          -2.08745116739071    1.05505551213068    1.08135953809989
H          -2.99034390109029    1.37716118576713    1.05583225075424
O           0.58781743787038    0.90642267841703    2.06274147111844
H           0.64798456542880    0.06422925978656    1.57450918896535
H           1.25790749145582    1.88080597600566    0.94046625224839
H          -0.35621019793386    1.10270783681087    2.10438572773969
O          -2.22534355401925   -1.49377499617419    1.48300025889451
H          -1.47596923985930   -1.73728750003625    2.03292427064755
H          -2.15473392637555    0.06196884222351    1.23583197825821
H          -2.03350068666243   -1.90492846203004    0.60747493818180
O          -0.69446016238991    1.55270931080292   -1.03384135114125
H           0.18317215959959    1.94583432779217   -0.67633556295282
H          -0.43979649052810    0.57641668520129   -1.47342021155468
H          -1.27078912604814    1.35730486816993   -0.22017771657085
N           2.73523749593445   -0.20804136424070   -1.21779829421207
H           2.60753498108577    0.71957059403554   -0.82949456156696
H           2.35768318898483   -0.86793981682271   -0.54896795653445
H           2.14565893618513   -0.26949394388600   -2.03891575339488
