    26
        -50.44195657  Gyration_radius:  2.44510660564 Dipole_moment: 4.529
 S          -0.75436160110581    0.23105157659048   -1.74462996737856
O           0.17251462265979    0.36719668121323   -2.84506255093884
O          -0.43804928184325   -0.86283100696126   -0.85849460310039
O          -0.90638432068368    1.50307064626627   -1.01322367171978
O          -2.16596053865739   -0.07369840619197   -2.37672344716215
H          -2.25215343615789    0.57515558353141   -3.06838214318907
O           2.54833431036778    0.11813588554962    0.36552592496723
H           3.39921126726792    0.55647551285743    0.30642759804377
O          -0.51338199259958    0.23091342469199    2.74660039817623
H          -0.22366504094727    0.27565639436460    3.65897486711125
O           0.56270549510562    1.66679299119438    0.93284859223531
H          -0.11171787846508    1.63698726588698    0.06315047445772
H           0.07177147956456    1.18550695496944    1.69438072230736
H           1.36024092327239    1.08388892773649    0.69534784102194
O           0.63956640518037   -1.70615238673005    1.44712531544023
H           0.14807086634429   -1.58177064378863    0.61392564961719
H           1.52082345584065   -1.35441595864330    1.27069607327152
H          -0.16282399476743   -0.62270506366042    2.36351514873387
O           2.15625587558745   -1.04108514769998   -1.91014048592133
H           2.40659125716146   -0.32716030287336   -0.52681976228521
H           1.68746654877582   -1.86163919706435   -1.73590647769082
H           1.49838488747113   -0.47555896647007   -2.37906126907225
N          -2.93523842878860    0.05853102337277    0.62119335827908
H          -2.49177592667567   -0.61895795994595    0.01303862232640
H          -2.40786487683304    0.07584579789651    1.48669167514811
H          -2.80856008707368    0.96076637391741    0.17900211732347
