    26
        -50.44195656  Gyration_radius:  2.44511204851 Dipole_moment: 4.533
 S           1.33410921282346    1.34801482637525   -0.26139023971139
O           1.07899103321100    2.32991653541646   -1.29059412012486
O           0.20622663340482    1.12156054724318    0.60954541844032
O           1.84328984427206    0.08925005968986   -0.83767407986729
O           2.50366154837148    1.91864693752579    0.62843602284667
H           3.15288250633641    2.20787295392629   -0.00533969939604
O          -0.47129988115749   -2.55911629100011    1.04424418705402
H          -1.00209389159935   -3.35254579240875    1.12848912764476
O          -2.05373002596562   -0.14537141877227   -1.54940444306102
H          -2.46852964247991   -0.22513608142728   -2.41033855149571
O           0.08315810228532   -1.55861031349865   -1.23627684387660
H           0.90582286289814   -0.84490065742386   -1.07805382258367
H          -0.05660509078867   -2.04012706238458   -0.34112044800990
H          -0.75178633157194   -1.00111391411258   -1.39286038260901
O          -1.52597670255810    2.36182787808096   -1.21518367287712
H          -1.85127429782736    0.83440742274587   -1.43220929964321
H          -1.64572769974236    2.55728208177712   -0.28200487894641
H          -0.55425138422599    2.44345344495763   -1.36196490995846
O          -1.89697620586553   -0.39620418119364    1.28884720673979
H          -1.15023115645444    0.22891558033399    1.23541036092834
H          -2.33877410230932   -0.32957323812920    0.43338448158651
H          -1.04536288891168   -1.78616153438089    1.31124945796123
N           2.09188350575937   -0.83716557228667    1.98231002496734
H           1.37777315453178   -1.55409924493880    1.92284108965286
H           2.61652290937248   -0.86888404833312    1.11666507312354
H           1.61829798818978    0.05786109222133    1.99299296121932
