    26
        -50.44195663  Gyration_radius:  2.44509883839 Dipole_moment: 4.534
 S           1.22118992035195   -1.47101090268927    0.09736123010972
O           1.06417710913984   -0.26853333636891   -0.68454165258199
O           2.27276136057704   -1.38266677575545    1.08473517494892
O          -0.05162765962131   -1.89779807058200    0.70860187080608
O           1.62961868891926   -2.62422782959663   -0.89693623475296
H           1.88305801494402   -3.34131783975483   -0.32404801425771
O           0.13665376386500    1.94471745332297    1.68476531604868
H           0.14176274326044    2.30425131195840    2.57377328233538
O          -2.55053022883153    0.78342169706266   -0.86247822182635
H          -3.29087878116332    1.39188818589843   -0.86596754959871
O           2.55944034245163    1.20608500140854    1.17463103296539
H           2.71805164554267    1.37108018833215    0.24136618352880
H           1.08458195675806    1.65896618322137    1.49894769298916
H           2.55163778569339    0.22315492938961    1.25398949028244
O          -1.49449164870797   -0.02125940393352    1.31616573206175
H          -2.00495387403966    0.22592291201954    0.46120484045606
H          -0.87471351217297   -0.89484822793828    1.06375767324075
H          -0.84998226356974    0.74392417089101    1.49395169769433
O          -0.27286056796615    2.01077655656584   -1.13836741204443
H          -1.73928764716658    1.29861439262837   -1.13597537873239
H          -0.11941939608484    2.38345273345639   -0.26142814397701
H           0.27783590012855    1.20638459804483   -1.16937376300156
N          -1.13666211901393   -1.85729051244502   -2.06542409328713
H          -0.20122122483314   -1.47052935846750   -2.09364562365578
H          -1.17746604796288   -2.43800984322169   -1.23676269931016
H          -1.77667426049131   -1.08514821344324   -1.91830245044004
