    26
        -50.44195674  Gyration_radius:  2.44503286396 Dipole_moment: 4.533
 S           0.20090598903147   -1.90348360871789    0.00698405000707
O           1.05692997573186   -0.74397209037136   -0.06023781514774
O           0.21251393364480   -2.55398626993071    1.29739768825604
O          -1.17570968977850   -1.59464678685928   -0.42357164808809
O           0.75260668983091   -2.95155549253851   -1.03344690419028
H           0.26807057731171   -3.74710939121022   -0.83575975894921
O          -0.74930656707433    2.20094042075415   -1.56726389817398
H          -1.00683492755531    3.11865565180621   -1.66647799759150
O          -0.41275976147483    1.29240503898702    2.19055433791761
H          -0.90198045259305    1.47204507968261    2.99555014842821
O           1.22384667393159   -0.63095863541497    2.73670211603724
H           2.02698738112144   -0.47435271668939    2.23290281378112
H           0.21917787797171    0.54088365485424    2.41550450315314
H           0.82550009071734   -1.43290392474963    2.32357135469170
O          -1.86668909833368    0.67863078700000    0.14819535707243
H          -1.51259237365874    1.27565434844998   -0.60740895308673
H          -1.59923565226136   -0.35373519824298   -0.12348431821174
H          -1.31863895347981    0.90778780771163    0.97253852648163
O           1.30693892604889    1.92478452522257    0.00303093978527
H           0.13136956428622    2.18723478692053   -1.09552180142120
H           0.92451268470428    2.03241207373416    0.88257877132771
H           1.40107168833001    0.96109101983157   -0.11407132323217
N           0.07331499129564   -0.60290300678060   -2.93941553403167
H          -0.16935927738690    0.37145266660707   -2.80059598320379
H           0.81668043019312   -0.82277608079595   -2.28786839130781
H          -0.72732070055571   -1.15159465925729   -2.65038627030479
