    26
        -50.44195624  Gyration_radius:  2.44535398453 Dipole_moment: 4.524
 S          -0.73828311591600    1.67186155267808   -0.57060304574296
O          -0.14968257336928    0.50407839203631   -1.18032151069636
O          -2.17418808397693    1.73777602084452   -0.72009592080560
O          -0.34042252033103    1.81129811489589    0.84289554384107
O          -0.14872647746090    2.93257403163136   -1.31110050822944
H          -0.69247577322351    3.65218852157984   -1.00571103324548
O          -1.53049073016659   -1.96905362671841    0.65055131626810
H          -2.23637573391994   -2.36746780828930    1.16300341801347
O           2.24091435275376   -1.21468893547739    1.16742523747228
H           2.67294175702180   -1.95288915258930    1.59957668947433
O          -0.01960322028545   -0.33751119407194    1.96147204575208
H          -0.63965687336963   -0.97253878101628    1.46704915128201
H           0.93586684791249   -0.63275324981285    1.73243564973294
H          -0.15748904107621    0.65169379167559    1.49798820239971
O          -2.65499688672963   -0.74996103229391   -1.33080468323889
H          -2.06924042569133   -0.83400729710655   -2.08786330327065
H          -1.98120007099455   -1.49579010749353   -0.11594090969291
H          -2.62307858899007    0.20794395424247   -1.09865342892849
O           0.86052771845953   -1.96434100710350   -0.90707747794591
H           0.59678979791497   -1.06799882042427   -1.18681363000068
H           1.87481417142193   -1.54897156493730    0.29998804891296
H           0.06634627985533   -2.34545752226027   -0.51277960853150
N           2.46013206761884    1.71174973345963   -0.17105355109128
H           1.91543703359042    2.23180647059794    0.50609092928071
H           2.69441165088161    0.82288524944941    0.25618146109327
H           1.83772845807298    1.51757425649768   -0.94583910210075
