    26
        -50.44195682  Gyration_radius:  2.4451350769 Dipole_moment: 4.531
 S           0.13582830525962   -0.26344721031279    1.89160595139805
O          -0.36450146556983   -0.99020191113246    0.74996555585473
O           1.39214085752643   -0.77209993812511    2.39287359092849
O           0.21255648931052    1.18602086253983    1.62865106960509
O          -0.91786018601548   -0.43494994534737    3.05158780947768
H          -0.47440263104612   -0.08473456927542    3.81793325614856
O           2.03787831996434   -0.36588648122298   -1.53521310646212
H           2.94173469338829   -0.19798648369084   -1.80815306368840
O          -1.40992438822142    1.35035416435455   -2.01062670060447
H          -1.50589686318503    1.66147038369068   -2.91192006807187
O          -0.68164412237887   -1.14553183437983   -1.90780599441670
H          -0.72155728262989   -1.22691097778580   -0.93667799036771
H          -1.29485357686912    0.35854041016970   -2.04757513598674
H           0.26004033534628   -1.10548558586134   -2.11541283397142
O           2.14855550367199   -2.16013214962652    0.32075084811408
H           2.09504755621118   -1.06393830199803   -0.81126371161219
H           1.99754839205395   -1.67084567582738    1.16350999736721
H           1.37274999505259   -2.71891929940426    0.22448073250252
O           0.74841690154640    1.70757887914793   -0.69779680017920
H           0.51057037020690    1.51747716783885    0.36037653431726
H           1.28519137443601    0.90643875955359   -1.01750756054279
H          -0.14381823917019    1.67578513444510   -1.20329250682509
N          -2.67727584825266    0.98616794514989    0.93250456869357
H          -2.05772573482167    1.60529766136034    1.44086369452723
H          -2.56454044397833    1.19726363597169   -0.05251426315239
H          -2.32425830184430    0.04867536977144    1.08065612694487
