    26
        -50.44195655  Gyration_radius:  2.44513114874 Dipole_moment: 4.533
 S           1.28644184535732   -1.28179684091410    0.60615209893597
O           2.51444544311565   -1.38350761797223   -0.14887152275495
O           0.91152582097204    0.07722200991490    0.91355645705372
O           0.19087169487751   -2.01711224611931   -0.05322381551274
O           1.53613173360033   -2.01857932602330    1.97730802789016
H           1.94064893182263   -2.84247649042754    1.72382546986931
O           0.38380913351998    1.33363307389018   -2.17124162273790
H           0.55405783521795    1.39994211648418   -3.11264760898165
O          -2.70856191242150    0.71904337664856    0.08993344951157
H          -3.46308931754704    1.21144565184700   -0.23651978001825
O          -0.60015980932730    2.22022902647248    0.35649176954268
H          -1.99745185720840    1.38146832116358    0.32213692901476
H          -0.02880351461672    1.53171660375651    0.74481143972361
H          -0.28825497620488    2.31900181014983   -0.55149006251791
O          -1.18861974375936   -0.59395469074007   -1.48302528867183
H          -0.56017090699391    0.14669070650014   -1.78122656338467
H          -0.59107418399132   -1.27148482252466   -0.85464944754433
H          -1.87558703658187   -0.15428067931020   -0.86047462023237
O           2.68304138954850    1.06569025998665   -1.02346714327647
H           2.74072060167023    0.11215640157827   -0.77853256714775
H           1.28607306809121    1.22749743497664   -1.73602705642963
H           2.63814772458062    1.52819668450876   -0.18238167656804
N          -1.44514268604457   -1.24864721798337    2.31518255133385
H          -1.28521633184084   -2.05663650892445    1.72599122686147
H          -0.55586588011173   -0.76930353653259    2.38509756841368
H          -2.07791708572419   -0.63615350040632    1.81329180762888
