    26
        -50.44195649  Gyration_radius:  2.44518934854 Dipole_moment: 4.530
 S          -0.21905915801730   -1.85175855446462   -0.43482892323846
O           0.42495671284944   -0.69335550325265   -1.00526777049269
O           0.70369410604235   -2.78140195636591    0.17569925827180
O          -1.29621095358391   -1.47549233279012    0.50000642306036
O          -0.92302589277691   -2.62324029322002   -1.61571408650761
H          -1.17562808618970   -3.45506148338491   -1.22721607159753
O          -1.28846666570589    2.48913488387584    0.05520096556481
H          -1.35238148966940    3.40121162343108    0.34217388861999
O           1.74388958225057    0.75291007679168    1.74226801109874
H           2.13855330769678    0.73756306393794    2.61612838145831
O           2.77521836640917   -1.22075235087638    0.43200975985912
H           2.15173294214095   -0.02136115075491    1.24338329874015
H           2.07353345929311   -1.91333648515905    0.41057651296845
H           2.86471378033539   -0.94028778566076   -0.48269077655618
O          -0.83238656575228    0.59849026910539    1.70635161585928
H          -1.12576917310956    1.35735789037741    1.08124634875953
H          -1.07898336768946   -0.34122346528996    1.18889726740944
H           0.18173615611182    0.64221323386459    1.75014431476750
O           1.09817629413336    1.89315958171265   -0.79278066731125
H           0.88604476345090    0.98336275058984   -1.07305242550431
H          -0.40798895335425    2.38158097230518   -0.40472137109808
H           1.59953543348452    1.79065671982412    0.02550862802443
N          -2.41740843843436    0.08544940835912   -1.77686484218825
H          -2.74353005812415   -0.52814929844311   -1.04012333242751
H          -2.27138648958562    0.99787965105823   -1.36014113177567
H          -1.50955961220626   -0.26554945557304   -2.05619326576464
