    26
        -50.44991604  Gyration_radius:  2.48980560965 Dipole_moment: 0.428
 S          -0.92907037875649   -1.54991550967612   -0.83797306765403
O           0.21215294068212   -1.56132587452705   -1.72365822035885
O          -0.59675607993068   -2.14017154107761    0.46806456448490
O          -1.55786081528913   -0.25752624814447   -0.68796102463797
O          -2.00760387508400   -2.51136849787517   -1.47818059034254
H          -1.44925736358276   -3.22514113209466   -1.76623200252553
O           1.91261916470462    0.93035107430546    0.63213558507759
H           2.80344472096612    1.25458599973475    0.77203818234794
O          -0.36441062700744   -0.45929547841779    3.35999674552326
H          -1.08112146847605   -1.09715298914399    3.32548092914057
O           1.54691413522619    0.73075021741916   -1.85630793814930
H           1.79172745370246    0.86260350921131   -0.39075480302046
H           1.14478193651171   -0.15972419324689   -1.92824441774918
H           0.80410727817110    1.35255416003407   -2.05381973298635
O           1.34792653492525   -1.30291772710482    1.71510295595439
H           0.58942605677871   -1.73363670003273    1.10065874596995
H           1.64255507493299   -0.42979394130443    1.25460949118533
H           0.76876685319077   -0.99713111431837    2.52616462495049
O          -0.78895712152539    1.21678980818869    1.40512649459204
H          -1.17866827082182    0.70376022957652    0.66797794244571
H          -0.62395922148140    0.27789117596595    2.73809173634510
H           0.11016282347072    1.43388041254539    1.12375952940531
N          -0.75188383183977    2.12298496633422   -2.11205564255757
H          -0.95388755292545    2.93295146955017   -1.53912721269102
H          -1.22821221934905    1.32564160638425   -1.69152693956735
H          -1.16293616719036    2.28035630771187   -3.02336592519531
