    26
        -50.44721164  Gyration_radius:  2.51036420096 Dipole_moment: 3.932
 S           0.77434422854938   -1.53456299584975   -1.25238228891752
O          -0.14774143364441   -0.48349883920768   -1.65513923263622
O           2.07539485751231   -0.95561859890859   -0.86998450412651
O           0.23902648082793   -2.42316867750484   -0.26136862402103
O           1.08719951347366   -2.38242315285862   -2.54739246493697
H           1.57155930828985   -1.74746116803580   -3.06422358022476
O           2.09494340186522    2.67108086697256    0.10348386480973
H           2.04034492797833    3.46569003903893    0.63644503487313
O          -0.19374721133443    0.50976814437346    2.10287790627595
H          -0.25003307517119    0.56390227087457    3.05809481396011
O           2.18819820670930    0.36591267000404    1.18650165640410
H           1.24436849637079    0.35398266254533    1.58765313550574
H           2.16914503106140   -0.27629603406265    0.30582769670031
H           2.29988657794979    1.30543070581307    0.79049114778085
O          -1.59255571683799   -1.47286039452152    1.41034709817158
H          -0.95198724350136   -1.98968701097030    0.88072725802284
H          -0.77040941517451   -0.30565725287279    1.83991287530975
H          -2.22692479436002   -1.11995186342255    0.73892110780001
O          -0.33228026438521    1.85272135052823   -0.38095438245523
H          -0.27569267292415    1.05608980247333   -0.94850039626786
H          -0.57014875788678    1.52182304986145    0.49582433540067
H           1.17155050719856    2.47948805030125   -0.22347104862649
N          -2.88553702721332   -0.44809559630585   -0.72147316800129
H          -1.99896918988483   -0.49541694608604   -1.22345445984848
H          -3.20784965398193    0.51068267099981   -0.76671936930532
H          -3.55208509148525   -1.02187377317868   -1.22204444164324
