    26
        -50.44721160  Gyration_radius:  2.51036725273 Dipole_moment: 3.934
 S          -1.57170363861890    1.20321081163971   -0.77811517470188
O          -1.71243722958551   -0.12934751577130   -0.21096148912119
O          -1.12571985716062    2.15537856716531    0.25563658116404
O          -0.76818130357354    1.24274019018534   -1.96599619139530
O          -3.02549805225931    1.68883865158202   -1.15821876246916
H          -3.41639371469418    1.77584840093513   -0.29536662113176
O           2.16854317196673   -0.12880109156173    0.00287636605948
H           3.11557819871432   -0.08151006157620   -0.13649020309966
O           0.57789214380262    0.70456770518146    3.27146286965751
H           1.26588826470963    0.37517344370551    3.85165788018321
O           1.15456708487085    1.93672930832453    1.11638487693469
H           1.57931234543090    1.15347802990917    0.60854624897043
H           0.16110871307402    2.08980473702913    0.69438919500153
H           0.95825332969706    1.57335770761414    2.05524475067286
O           1.13142259832542   -0.59110685166258   -2.25050582461406
H           1.76337676601143   -0.31735735941178   -0.92820109842364
H           0.57208559698789   -1.39563054379182   -2.11758979935195
H           0.48250386063735    0.13814270566619   -2.32149728770267
O           0.02523822569872   -1.15716946882787    1.53247793597454
H           0.25300927184986   -0.07440160601802    2.73856566882933
H          -0.69713350229279   -0.82934329540845    0.95744601744841
H           0.82240681300576   -1.11175529702030    0.98721820777218
N          -0.69103799980325   -2.46211082041795   -1.58365423000835
H          -0.52368014123329   -3.17495746390210   -0.88439166344205
H          -1.27487668614247   -2.86729720436998   -2.30405486576536
H          -1.22452424944726   -1.71648167920960   -1.13686337744404
