    26
        -50.44195647  Gyration_radius:  2.44521948035 Dipole_moment: 4.531
 S           1.09621240151881   -1.11193827295023   -1.10902363408300
O           0.10736574761744   -0.44258439801600   -1.97529675073143
O           2.43512886042222   -0.64255090001139   -1.38303869814688
O           0.73198250368700   -1.02962833297489    0.28469970278154
O           1.05739178582332   -2.63566142679139   -1.51123115865663
H           1.44205757913355   -2.65308779874276   -2.38213269164314
O           0.83963915357448    2.30199899911751    0.79764655799848
H           1.18408703426558    3.18369781031457    0.64390978723918
O          -2.64191105091083    0.58953210816752    0.72533155814773
H          -3.29904520603033    1.15733960123998    1.13046740118995
O           2.87216647815792    0.70663379729472    0.80364641277133
H           2.69115950696757    0.01456405210430    1.44528377923413
H           2.84154034465413    0.24867958028162   -0.06916204745567
H           1.64011808519187    1.69055113447039    0.79588485991493
O          -0.55291646976955    0.27386148328707    2.24435518115056
H          -1.95675842844813    0.38166441036119    1.42221847299020
H          -0.09459664245839   -0.36133025123103    1.66323998649429
H          -0.07477969227650    1.10451343271450    2.13100845047795
O          -0.91824192069548    1.50669860710835   -0.91708627021322
H          -0.47804765812158    0.63940190602937   -1.43306747878319
H          -1.68745416653909    1.14165006772518   -0.34468455951728
H          -0.21263578992132    1.83964187717428   -0.26627232777235
N          -1.90565037484066   -2.21766610279618   -0.67981666931749
H          -1.69208134637865   -1.87507338327635   -1.60868519203254
H          -1.01663585716817   -2.33120998790859   -0.20834376135530
H          -2.40809486740987   -1.47969802272631   -0.19985092066413
