    26
        -50.45381456  Gyration_radius:  2.64827425383 Dipole_moment: 1.739
 S           0.32596928094554    0.64442809803762   -0.35100909864102
O           0.40585767999490   -0.39968875434592    0.65594930803385
O          -0.53438182565332    0.33127421963022   -1.45752060881550
O          -0.15049308003829    1.93563240863558    0.30309088533480
O           1.72571696115403    0.97348102764554   -0.84347337980007
O          -2.34575392780835    1.29991284303817    3.08113627124046
H          -2.50338095705565    0.77543653415465    2.25406269684828
H          -2.76003697658409    2.15350174783969    2.94470659902477
O           1.86212151155077   -2.50785502922484   -0.12573727659236
H           1.25720459739696   -1.81890163463993    0.21252591887174
H           2.47692321360054   -2.70370970761017    0.58376667659715
O           0.40441692196462   -0.89482022122242   -3.64547517009888
H          -0.07633748780573   -0.50525686811477   -2.88911373607815
H           0.33473243086170   -0.26236668072041   -4.36293505440688
O           0.25878514426522    1.42242501217283    2.71334655188881
H          -0.68428706009941    1.39902105208205    3.02824070397368
H           0.48117600200651    0.51147421356384    2.48087756353364
H           0.06602412660045    1.86642436549522    1.31770864368821
O           2.59824078327160   -0.94402539192773   -2.15152540649292
H           2.44535983031425   -1.67488499603336   -1.51014637980731
H           1.89724358801610   -1.04109973969669   -2.83898308218968
H           2.16544839065237    0.18076767363565   -1.42388149485887
N          -2.47653256523622   -0.04348143898122    0.74555959494291
H          -1.60073266302855   -0.55277977244655    0.81111047090624
H          -2.37036331243476    0.56919351405892   -0.05539211404714
H          -3.20292061687080   -0.71410247507163    0.52311089695882
