    26
        -50.44195693  Gyration_radius:  2.44534122791 Dipole_moment: 4.527
 S           0.74247519854042   -1.56413260573463   -0.81866351438495
O           2.18152556325860   -1.69369922706981   -0.79177993123020
O           0.14571860729597   -1.96468692880785    0.46966866508107
O           0.29035265270152   -0.25936298997389   -1.23697676567846
O           0.21292540161934   -2.60350912497763   -1.87895751895414
H           0.66366588887254   -3.41130897328246   -1.65308045220307
O           1.50633755286984    1.68430233702975    1.23985558070680
H           2.15148575729117    1.92062163873918    1.90886664959768
O          -2.32695236757654    1.09545078471281    1.11493706379608
H          -2.78280367784340    1.75673735957087    1.63765068890869
O           2.83934372641310    0.82822239750533   -0.80133597727913
H           2.36310293092035    1.10335323700354   -1.58930301391966
H           2.03797248096931    1.35090172035715    0.45191180212792
H           2.73913292095545   -0.15261712805671   -0.78203723689766
O          -0.23086247170391   -0.07783941528844    1.97570034998906
H          -0.07317145905889   -0.95704619005245    1.33083363316912
H           0.47502923609876    0.60209413083993    1.70866995537515
H          -1.13406594503264    0.32254701299150    1.69984727740721
O          -0.65048182206346    2.16059827870869   -0.56636050447015
H          -0.38715460162957    1.32638448776224   -0.99753462709344
H          -1.83415136461292    1.57512830615427    0.39024771272143
H           0.09782552459229    2.39748833948498   -0.00476222400938
N          -2.48131820264510   -1.46303765448439   -0.84325061322261
H          -2.06100270215187   -2.15251558572090   -0.23195644037610
H          -2.73834569850987   -0.67131607993690   -0.26482381762826
H          -1.74658313955941   -1.15275810747949   -1.46736676153131
