    26
        -50.44195656  Gyration_radius:  2.44524859016 Dipole_moment: 4.529
 S           0.79369146206531   -1.27580904229670   -1.18750843975086
O          -0.22848294740820   -0.52772648792179   -1.94371515577827
O           2.12321070165432   -0.97915162701871   -1.66972681948206
O           0.64552490245749   -1.09757966732329    0.23660886561618
O           0.52726445161476   -2.79847126512751   -1.49653921365455
H           0.77936454488371   -2.89502829543488   -2.40969318732582
O           1.19825813690188    2.21473477240841    0.54701451798413
H           1.61362363612617    3.04297449285774    0.29975893690459
O          -2.42765558169513    0.92672422209037    1.04983124090151
H          -2.95212349590370    1.58342150144757    1.51032235864675
O           3.01902496470382    0.39105591858720    0.35831731895881
H           2.85569810182329   -0.24955839096731    1.05570940720909
H           2.81193850494993   -0.09297044148883   -0.47551688697012
H           1.91661930177405    1.51309943731906    0.46765705915714
O          -0.19091589049722    0.42344839980866    2.28063673472990
H          -1.67722585639184    0.66575331357624    1.65565236298298
H           0.10510437570861   -0.28362303350714    1.67762939631783
H           0.35616146290677    1.18639882323227    2.05688540738789
O          -0.86553005254178    1.56907318161845   -0.86260917627820
H          -0.60436151206755    0.63619753290489   -1.38613405688027
H          -1.58074619548598    1.32034788072068   -0.17044664084813
H          -0.04097685989167    1.84037378566719   -0.33459069585838
N          -2.21957258801914   -2.00071051934768   -0.28590120566592
H          -2.56214323036326   -1.18981807606308    0.21656916320994
H          -2.10573007301560   -1.72355836650683   -1.25333044304934
H          -1.29002026428365   -2.19959806922487    0.06311914154044
