    26
        -50.44195640  Gyration_radius:  2.44520143571 Dipole_moment: 4.531
 S           1.19032653454612   -1.20914168177108   -0.88818006979648
O           2.50845484613106   -1.36395730518820   -0.31670411294114
O           0.19256965530363   -2.01192214787590   -0.15586757189567
O           0.77917714284896    0.16753486306160   -1.02088597407101
O           1.24985351169553   -1.81925508908374   -2.34050719362938
H           1.66098797238035   -2.66902492140722   -2.21575462900418
O          -2.69161210443882    0.69748444374028    0.34655341888719
H          -3.39180870395972    1.15168683845834    0.81752461179493
O           0.68461430025359    1.14000183764436    2.20757782718280
H           0.98358935888923    1.12363621740750    3.11859249146348
O           2.80170188088718    1.00344333487172    0.73292570131293
H           2.82372301233804    0.07508774826518    0.40101844290633
H           2.63983249954675    1.53559861600404   -0.05064644338764
H           1.51784739067045    1.08445580241688    1.64415554522158
O          -0.97185996710712   -0.73466047551707    1.57160394759247
H          -1.73690809538610   -0.24814317870089    1.09118131078680
H          -0.46845714680221   -1.34826982580109    0.80853733944971
H          -0.30649888757342   -0.01745210574550    1.84573843040983
O          -0.63629508612815    2.23764473910493   -0.07146913395811
H          -0.12545318059862    1.59247958225301   -0.59493871614999
H          -2.01790304338365    1.38478381704960    0.07825218115199
H          -0.20203417357367    2.25845010806950    0.79017652790163
N          -1.75680373804206   -1.05160812119960   -2.19589764012383
H          -2.31407292915468   -0.49461550847534   -1.55818598191730
H          -0.87707404418353   -0.56746435951519   -2.32679457840941
H          -1.53589697516246   -1.91677321805105   -1.71800575077374
