    26
        -50.44195683  Gyration_radius:  2.44543539573 Dipole_moment: 4.527
 S          -0.59374758129892   -1.48356828395170   -1.05587822534851
O          -0.15398721627114   -1.52306114063697   -2.43178455020551
O           0.46014472489383   -1.96767511844329   -0.14396658509387
O          -1.10350755890066   -0.19578494221359   -0.65166596299892
O          -1.77886077862990   -2.51511914190338   -0.92826581434840
H          -1.44394450930923   -3.30153357078765   -1.34790832059887
O           1.64904397261746    1.73020503559496   -0.96348305614063
H           2.48000237312216    1.98226438936745   -1.37043122269797
O           0.41168219906967    0.90565792275891    2.62153541612232
H           0.79083279181764    1.51771473186313    3.25396818940405
O          -0.69494943074993    2.13426587733592    0.61204616563036
H           0.06267411369196    2.39778260493655    0.07535003015595
H          -1.04483888315449    1.33442282195660    0.17737113646451
H          -0.13153919510033    1.44135957096180    1.97651034922699
O           0.06754552545628    1.03417822129183   -2.88464346796926
H          -0.82003838506149    1.30701139946492   -2.63742567387948
H           1.04327262592602    1.45969377632231   -1.72142266932432
H           0.04123501046809    0.04896831436016   -2.85279553901397
O           1.82196901776678   -0.16314475143010    0.78275715641866
H           1.30354177459399    0.18889236899676    1.59468076938925
H           1.23637472248282   -1.00731290026770    0.38426999069604
H           1.78135764068965    0.56923110740442    0.07988061541870
N          -1.54808715009685   -1.58581325731850    2.02421202788252
H          -1.92752634212940   -1.20886048427992    1.16430382251206
H          -0.85098603941444   -2.26781991967076    1.75087181632586
H          -1.05766341243689   -0.83195463173142    2.49191360206417
