    26
        -50.45381453  Gyration_radius:  2.64775392027 Dipole_moment: 1.728
 S          -0.74316547191966   -0.03420543860025    0.30721974425270
O          -1.62002197417073   -1.17112270784048    0.80549894728594
O          -1.70478645750049    0.86994768961634   -0.45426447263648
O          -0.18826501694212    0.69340963184063    1.41414149423687
O           0.24737204814576   -0.56209668634191   -0.61527196650056
O          -0.09632138749417    2.51527788366985   -3.21495822063541
H           0.39870470089386    2.49549701101947   -2.35540456719930
H          -0.73039418195901    3.23093110895596   -3.14640416057597
O           0.44723445003620   -0.53513735990207    3.70701630004676
H          -0.14877431208545   -0.19048519907617    4.37455899222498
H           0.31977308751712    0.02017986522127    2.91307300749320
O           1.56898913632451   -2.68124411738382    0.35356224380520
H           1.55097112025860   -3.35861033885801   -0.32506658402800
H           1.19231145087561   -1.87418419937963   -0.04859755231747
O          -0.27550483000923   -2.64953624788630    2.27347000755877
H          -1.09727229246006   -1.85319408875079    1.45395839378519
H           0.49371523136043   -2.82479328368687    1.68473139773537
H           0.04657370779328   -2.00689908269353    2.94921612073114
O          -1.24001546896316    0.17869228632558   -2.80917765993170
H          -0.83333894272086    1.02412515424509   -3.13941789247845
H          -0.50315276389027   -0.36621689480092   -2.50352409463116
H          -1.66085007627908    0.59438485598969   -1.45606580714803
N           1.05259728878383    2.22370861538354   -0.79240049358019
H           1.18141521268683    1.21677601481170   -0.80202507221425
H           0.40223961193758    2.40303059457279   -0.03548757237286
H           1.93996611978076    2.64176493355664   -0.53838055290817
