    26
        -50.44195683  Gyration_radius:  2.44528474262 Dipole_moment: 4.526
 S          -0.83404891744434    1.65269304983707    0.49016036404443
O          -0.19659017443816    2.86586885651925    0.03188427039366
O          -1.64124720187259    1.03629882004545   -0.57990699067027
O           0.08321759429538    0.70917937933045    1.08177759980688
O          -1.85823590426380    2.07398970208848    1.61194202749012
H          -2.33413667222226    2.80258180727717    1.22547720163549
O          -0.42395476111817   -2.75193484490847   -0.32401828569957
H          -0.16745387346931   -3.61306368217899   -0.65718731330349
O           2.05584882740381   -0.03202689284042   -1.55450565438830
H           2.50930993294216    0.17542909644420   -2.37363535396379
O           2.27766047441319    2.04930964328578   -0.03929140707865
H           1.39487538869596    2.48745413578915   -0.07249610159049
H           2.35722311974584    1.73644807561395    0.86579817818705
H           2.14797961159047    0.78661411722197   -0.97497291877524
O           1.55566851732830   -1.51784321213201    0.82936120225366
H           2.07715698445715   -1.19917513819226    0.08237596318671
H           1.04070976065451   -0.74411913093873    1.12487500465087
H           0.32705416014805   -2.41501649157679    0.24211428787505
O          -0.42795451707242   -0.68443000897982   -1.81968241698018
H           0.54682908107824   -0.40898768717668   -1.74385206649369
H          -0.52679606765042   -1.54521551201701   -1.27069288634742
H          -1.00964842292703    0.08755626278295   -1.29090156845594
N          -2.42620959708714   -0.97373421494609    1.47485955523171
H          -1.70667903028746   -0.38037649643046    1.86960966430731
H          -2.86048979974469   -0.43718284421517    0.73369335334693
H          -1.96008851318252   -1.76031679972922    1.03721427133698
