    26
        -50.44195694  Gyration_radius:  2.44536983864 Dipole_moment: 4.527
 S          -1.22616532422846   -1.09063835600518   -0.98729755173246
O          -2.50384495088755   -0.50125682242057   -1.31670098779415
O          -0.17295029759695   -0.63629276758106   -1.91501624976315
O          -0.84454849864325   -0.90284716491053    0.39141957052116
O          -1.36746480429260   -2.64260380278849   -1.22502968906329
H          -1.76875500740776   -2.70684464161002   -2.08616502871830
O          -0.55960329135269    2.45637716342754    0.54428750357039
H          -0.80023256088648    3.35163355666804    0.29885915530397
O           2.69963769660837    0.35432623204651    0.66546728372510
H           3.42293952332068    0.87977565264184    1.01051216401420
O          -2.76375528375524    1.11812568029143    0.70893116969178
H          -2.79338918650484    0.56856323455677   -0.10930771752989
H          -2.65958331473570    0.48262926297901    1.42214683664737
H          -1.42592404359173    1.94581211652514    0.60295727729896
O           1.07843104974715    1.28525037852159   -1.07123929197355
H           0.53649832073171    0.42310380111514   -1.49176610232257
H           0.42241598755542    1.76513023546153   -0.46193827298299
H           1.80591130444649    0.89723433411657   -0.46098734928092
O           0.60192906774840    0.44622806926137    2.20258093008582
H           2.00135484349692    0.30275091191670    1.37817691987885
H           0.22189938841331    1.30955223669113    1.99825303453539
H           0.06784189968256   -0.19064240839777    1.69241004384181
N           1.62853963891953   -2.48518959078845   -0.42651367503093
H           1.44375297051497   -2.22471549865637   -1.38762068182210
H           2.21693168454747   -1.76091751243251   -0.03068791858554
H           0.73813318814733   -2.44454432069822    0.05426861758456
