    26
        -50.44195701  Gyration_radius:  2.44540045428 Dipole_moment: 4.530
 S           0.21841002378155   -1.72940920750451   -0.79355825575671
O           1.18481951388716   -2.61157021214738   -0.18017914516271
O          -1.05391518527159   -1.72829637775394   -0.04692529537582
O           0.71570463012781   -0.39209324809381   -1.00845488205624
O          -0.11497050969913   -2.33619764499955   -2.20971619911809
H          -0.28070812026998   -3.25676121342614   -2.03132790015149
O          -1.73475073239586    2.18911733433837    0.23938390883809
H          -2.01883490332377    2.99901250996979    0.66562690687411
O           1.25176376998397    0.62886877081284    2.16361445691573
H           1.49091267178673    0.49177632577773    3.08210353819915
O           2.84830691386184   -0.83784560815604    0.75791863427398
H           2.30606640684652   -1.61103945049034    0.47413398141770
H           3.03175463875832   -0.36087202751168   -0.05585894209969
H           1.87898114805676    0.05096961507628    1.62761882148564
O          -1.20435687287700    0.08586662140531    1.58301038141225
H          -1.53029654338650    0.90499955540814    1.05848047346228
H          -1.17594582705250   -0.74900058498988    0.86487818504029
H          -0.23948365500953    0.27644331517415    1.83714976385331
O           0.82910322464257    2.16360419155457   -0.20428912428721
H          -0.78615070973575    2.31878736424718   -0.04632663622495
H           1.19739269230257    1.96937310135660    0.66642461736956
H           0.84693423870881    1.31254098292226   -0.68029480076228
N          -2.05350819514902    0.08772267237074   -2.18753912057204
H          -2.16145145807838    0.90077263207758   -1.59188069476021
H          -1.06014660517705   -0.05549263838077   -2.32277987677073
H          -2.38563053533152   -0.71127675908412   -1.66121279608330
