    26
        -50.44195662  Gyration_radius:  2.44534487787 Dipole_moment: 4.528
 S           1.55760651491089    0.85098834850465    0.71988229686191
O           0.95806355311914    0.02537128669427    1.78538902008853
O           2.83842707743337    0.32415718281206    0.30732662677501
O           0.64239095914381    1.06100592705688   -0.37554128529657
O           1.83417605995134    2.25900205460508    1.37252750935640
H           2.54676058765934    2.09367936178148    1.98211702717486
O          -2.74793102341015   -0.40870901152425    0.37527507743862
H          -3.56460814431215   -0.87539526256878    0.19202886610127
O           0.21044317157236   -2.09361448431208   -1.48697486174276
H           0.50198322093121   -2.99064197159635   -1.66011406282917
O           2.19906040499807   -0.54797965209474   -2.06415646951202
H           0.99369538476178   -1.50223280915454   -1.71361612439459
H           1.83439609083993    0.26315960616297   -2.42805367978073
H           2.57720260519636   -0.28026685267139   -1.19373614101290
O          -1.45898361912938    0.19926459371360   -1.80194032412623
H          -2.39779866196804   -0.06628010150434   -0.49559865921896
H          -0.74293912294154    0.69789124481482   -1.36633403696709
H          -1.05759421324420   -0.64029921292834   -2.05781438260336
O          -0.59216499905189   -1.65726507293173    0.92736945846379
H           0.10208403457484   -0.91750659373043    1.35614502468693
H          -1.49160307290083   -1.17692047754627    0.81529233459148
H          -0.25581432016498   -1.85361230816827   -0.01095587915872
N          -1.23250067319391    2.04598547629562    1.81734164921806
H          -1.95551059970756    1.42466062173507    1.47280322091012
H          -0.68637185986992    1.52114705369377    2.48959822690125
H          -0.61246935520807    2.24441107277933    1.04173956809488
