    26
        -50.44195696  Gyration_radius:  2.44530208617 Dipole_moment: 4.528
 S           0.94777221666675    1.17678936009570   -1.17675402913318
O           2.35719068856011    0.91732885389673   -1.36277718222596
O           0.12441551185895    0.27333592981113   -2.00265641872618
O           0.53805107316387    1.16189408956577    0.20663844390348
O           0.67715798252394    2.62869108783775   -1.72762120509812
H           1.10543964506615    2.63493909945890   -2.57807017241896
O           1.16796019295856   -2.04636047902824    1.04518789084917
H           1.65941365253550   -2.86812869260669    0.99238295931390
O          -2.54066862507420   -0.96029169741698    0.69302446965938
H          -3.11542752254145   -1.59004939883471    1.13048779133759
O          -0.61236817276143   -1.71928350283901   -0.79554823560482
H          -0.29769363422311   -0.83903375369525   -1.37833324929265
H           0.10608646424216   -1.86795113632835   -0.09302859811404
H          -1.45808076131347   -1.43953342876456   -0.28671557083102
O           2.90780936493257   -0.13816907072258    0.95578608496087
H           2.58527010604668    0.56864808249208    1.52127012321956
H           1.85647070713367   -1.31209589239450    1.00718935350510
H           2.84321424339921    0.22750510020712    0.04226286737383
O          -0.60749689091227   -0.15928083108365    2.23967621451555
H          -1.93326253762393   -0.57732888712891    1.38774706647243
H           0.00613145819446   -0.90403958636909    2.22238591647875
H          -0.23303035206624    0.48951976091709    1.61515351505835
N          -2.20937186951936    1.79642497211308   -0.94897005929200
H          -2.60465940655420    1.02818262679860   -0.41880409509269
H          -1.37849442079062    2.10350831663333   -0.45813879291964
H          -1.89182912387484    1.41477906739007   -1.83177508797207
