    26
        -50.44195691  Gyration_radius:  2.44530907581 Dipole_moment: 4.528
 S          -1.61173602492684    0.98522287274581   -0.31556975307448
O          -1.88654591788848   -0.01103299620627    0.73723843118744
O          -1.66714301935200    2.33037290843801    0.20963034401765
O          -0.38878562179288    0.69438919343643   -1.02379065885349
O          -2.79322104626016    0.85318132754728   -1.35072326866975
H          -3.54607977333934    1.20457813520221   -0.88548902582063
O           1.88970849666319    0.98622473025569    1.44909322288194
H           2.23454161406754    1.36461272893775    2.25997372741557
O           1.10463550314694   -2.57346766000973    0.11938999251556
H           1.79990869621712   -3.18373676871817    0.36938707252424
O           2.04493171744923   -0.43204030393094   -1.02157604494690
H           1.17956379203090   -0.03324283993574   -1.22950106412057
H           2.38210327811061    0.07979999943647   -0.27602555083164
H           1.51904164204978   -1.86668557925282   -0.45234719004606
O           0.86518665358330    2.93768886260236    0.10058791915474
H          -0.11021019821555    2.84266168157423    0.20983314636989
H           1.49211105813331    1.75560231821809    0.93471783649474
H           1.02212132900994    2.75541854956416   -0.82975310699237
O           0.14400521944881   -0.88729162113525    1.77614308509349
H          -0.79618951963895   -0.51505435798079    1.33920276568331
H           0.46485523190820   -1.64556614129337    1.16432478711476
H           0.82128271945274   -0.13661597657611    1.67771254311619
N          -1.67101909015049   -2.03901663582099   -1.43469161970405
H          -2.26200825652191   -1.84612704605635   -0.63510887921938
H          -1.40096282705477   -1.13833688661284   -1.81081092301030
H          -0.83009565611375   -2.48153851441509   -1.08184779828850
