    26
        -50.44195693  Gyration_radius:  2.44538131782 Dipole_moment: 4.526
 S           0.84662309196656    0.05663620695701   -1.71689252695749
O           0.25689768533364    1.38376236895679   -1.45701337291480
O           2.29032538253991    0.11896302954377   -1.73121947339544
O           0.32317597994116   -0.94756834590586   -0.82284773615425
O           0.39497176406714   -0.33589427955889   -3.17528338401007
H           0.88974034178255    0.25435342974603   -3.73522225951523
O           1.38475181615879    0.21018268982470    2.16362864185399
H           2.00459290956021    0.66138709231686    2.73967649752896
O          -2.40437237197481    0.46014623515891    1.36530073009255
H          -2.90666938208752    0.59188182209087    2.17070661099040
O           2.79638099829999   -1.15593376007490    0.48501934461706
H           1.94685950631256   -0.31594199304680    1.51416734950213
H           2.31648384158733   -1.96822526723946    0.30262805472510
H           2.75458898008857   -0.64926116125075   -0.35993887759862
O          -0.25492240133980    1.75530822541756    0.90304677052281
H          -0.03516413679755    1.63176567237779   -0.16947978302804
H          -1.17616433491922    1.33188763454975    1.05848651438706
H           0.41293920113363    1.17312549092007    1.39990377043055
O          -0.76997132821477   -1.55642865895694    1.54915688196213
H          -0.04539334662195   -1.20022588138176    2.07792193325408
H          -1.93042622970754   -0.41542595157297    1.44879998896236
H          -0.45111877402069   -1.51910934657771    0.62825025311120
N          -2.37691092401606    0.04132076219778   -1.83263539059863
H          -2.68898512089815    0.15193738422122   -0.87458923734484
H          -1.92557518482837    0.90795337429218   -2.09907664197859
H          -1.65265797333617   -0.66659679295518   -1.83249465844161
