    26
        -50.44721166  Gyration_radius:  2.51035614606 Dipole_moment: 3.932
 S           0.24504503514621   -1.01830305400256   -1.85100337455918
O           1.11681831812756    0.12703609311677   -2.17091590338229
O           0.56688971787120   -1.54598571392253   -0.53375079262688
O          -1.14931687911506   -0.73436991828222   -2.03386822180169
O           0.65615869288985   -2.12870751429318   -2.89585361446493
H           1.60249129685279   -2.12351535383819   -2.79936812728156
O           2.72319180969027    1.89503418786440    0.72591443477462
H           2.86031069382211    2.51003547798520    1.44801006104875
O          -1.00074809029478    1.73602531745228    0.83937237757575
H          -1.54220610373990    2.49364055677228    1.06599688682268
O           1.12232512854525    0.01335401932571    1.55810755044055
H           1.00466165918455   -0.62931233372047    0.82800801155947
H           2.26598206020820    1.09575803940373    1.11108803247004
H           0.29330309619202    0.50960032031712    1.59384880044606
O          -2.58361834394692   -0.08666524836237    0.10516522591274
H          -2.22228159151461   -0.31796473532198   -0.77454998535221
H          -2.35795300882172   -0.86757450745317    0.66823162948834
H          -1.66500712771490    1.00335783083777    0.54175192936618
O           0.79816834982022    2.20332182974422   -0.91556425516900
H           0.02297410980936    2.03055330689346   -0.26667836234152
H           1.64284724740371    2.19281450579628   -0.33378736781238
H           0.90614371416667    1.30903958882217   -1.52958811769786
N          -1.51030583351977   -2.21407563309111    1.36556593284003
H          -0.74575448714495   -2.16875636902945    0.69204272192416
H          -1.94833872918606   -3.12142518931633    1.27124354861103
H          -1.10178073473122   -2.16291549369778    2.29058095920672
