    26
        -50.44772980  Gyration_radius:  2.51299202081 Dipole_moment: 2.774
 S           0.37448173528331    1.62690897698785   -1.29554202537550
O           1.58992112178585    1.03180044663042   -1.79799965057143
O          -0.80633169099530    1.17657922412467   -2.05291993408532
O           0.19012222246777    1.47597329047386    0.13014219238400
O           0.47193679489036    3.17962754067777   -1.57783630711855
H           0.67062392663023    3.17828367686063   -2.50803563034223
O          -0.04696564776742   -2.16187049740124   -0.01074070480954
H           0.08424876572195   -3.08953389968908   -0.21287725992280
O          -3.35166452035470   -0.39568384244481    0.48538103827127
H          -3.89194584447810   -1.07791070316794    0.88684490095271
O          -1.08405911200355   -0.22986146837644    1.76121894100883
H          -0.63903298609443   -1.02549285298301    1.43781255104405
H          -0.65450565489401    0.50386577948764    1.28088461779247
H          -2.58064408950611   -0.23687918827199    1.09927911819355
O           2.21004145928537   -1.06838619904086   -0.30525095456992
H           2.08014316519048   -0.33897017829628   -0.94751445637937
H           2.38883966607433   -0.60842940924040    0.54934991418212
H           0.87743410292749   -1.72069656598630   -0.13499706957938
O          -1.79659241840990   -0.97772352583168   -1.44855247827348
H          -2.52008527901291   -0.73289917659097   -0.76350952227426
H          -1.36350009575567   -0.02556230309550   -1.75735336612950
H          -1.07096655490067   -1.47217881260077   -0.91936923222245
N           2.29217761500910    0.52395899608710    1.88266971136086
H           1.60788249340524    1.08322034572845    1.37507964216986
H           3.09177291723482    1.11397277791034    2.07404381379073
H           1.87666788994629    0.26788755898201    2.76979213938900
