    26
        -50.44772982  Gyration_radius:  2.5129877712 Dipole_moment: 2.774
 S           0.86578637808278   -1.49709816824273   -1.21431206642098
O           2.15931970662504   -0.85333649464421   -0.92613544411190
O           0.56305375367751   -2.53765676520175   -0.26064673356130
O          -0.19273288936909   -0.52757600722742   -1.38438548128944
O           1.06435317044242   -2.20156341426441   -2.61588370996173
H           1.70785345330302   -2.86491562146905   -2.39095052007696
O           1.53672804455267    2.99900319644984   -0.51999605511731
H           1.51085418580103    3.84793189489290   -0.07594926877380
O           0.00155938320124    0.69067462295256    2.04906203707992
H           0.07572631212847    0.76102320281160    3.00205055844967
O           2.20515078727866    0.90664000498602    0.77309240026580
H           1.34596521079345    0.78132837646625    1.31821324907913
H           2.22157741854421    0.10956803808612    0.02890351659902
H           2.06888484346885    1.77062152787994    0.23676703761754
O          -1.04649583652682   -1.56357208612580    1.60590954551693
H          -0.43596024516116   -2.03625400734978    1.00156014033626
H          -0.42479247273828   -0.23257942540888    1.87457692735566
H          -1.83958487724105   -1.37591716992281    1.04944375466741
O          -0.81284535206645    1.87850789656805   -0.37457685048309
H          -0.65793686815995    1.05696552594780   -0.87922666888927
H          -0.81922497401636    1.59758049666178    0.55099973715991
H           0.59262656266006    2.68518523254977   -0.60214468641676
N          -2.85304118094296   -0.91702610596041   -0.30396539525286
H          -3.34040869386244   -0.02985387929754   -0.32767865791152
H          -3.46209543482366   -1.61586376814108   -0.70983435215667
H          -2.03432037378975   -0.83181709904398   -0.90489300586170
