    26
        -50.44991651  Gyration_radius:  2.48985143656 Dipole_moment: 0.420
 S           0.44070061702799   -1.70217737939314   -0.93507083975787
O           1.74391491636448   -1.42190352114589   -0.31231131328758
O          -0.47859118576758   -2.28696925659172    0.01361370071901
O          -0.07206998170392   -0.54335184423283   -1.62960649223290
O           0.72065949630596   -2.80556584339227   -2.03118591696352
H           0.79121596015607   -3.57781319990890   -1.48083368915911
O           2.97906937070626    1.63060630082517    0.31774472495139
H           3.46964587668899    1.12737348617091   -0.33632447966311
O          -0.43705584482019    1.03752757549326    1.91182708727734
H          -0.69870320084090    1.34167607507132    2.78207168549215
O           1.83676696218995   -0.09615716152913    1.75417993928861
H           1.76128833256691   -0.77292935644131    0.93238070753544
H           2.41088476862242    0.65483275800746    1.31496315770282
H           0.90389742229468    0.32182623000886    1.88106013417330
O          -2.19724804312324   -0.57735418295298    1.09882459365890
H          -2.56642410965847   -0.16030336179504    0.28204034349186
H          -1.65004725515830   -1.31938911859077    0.76753548500724
H          -1.17462616280220    0.38399308394653    1.60516507313267
O           0.54841560884160    1.84754612199927   -0.60736864169308
H           0.34997564955153    1.01598634776879   -1.08442489632111
H           0.01911206040784    1.81585296221166    0.20110663893684
H           2.11149728541463    1.86963685441078   -0.11552512807302
N          -2.74960627470283    0.49544186861308   -1.31646881924825
H          -2.73512300899868    1.49561535706256   -1.47315400034406
H          -3.47242646483903    0.10208805989338   -1.90550560650240
H          -1.85512278473539    0.12391114444884   -1.63473344811520
