    26
        -50.44991643  Gyration_radius:  2.48985411859 Dipole_moment: 0.418
 S          -0.55676025107754   -0.88192062367980   -1.69622334057060
O           0.86240517187506   -0.92708620334022   -1.96278386215691
O          -0.95324952057131   -1.92587538684368   -0.73822959508832
O          -1.04987021290599    0.41614348967885   -1.29611473864399
O          -1.28246035065548   -1.24906546764509   -3.05117456067388
H          -0.72289390587783   -1.95398036205572   -3.35816969959464
O           1.45223935298349    0.11186142385651    1.67345132952993
H           2.19272266065537    0.11512346286554    2.28171787992569
O          -1.97986280337273   -1.38538250877970    2.40754422331079
H          -2.64914402298502   -1.75314686294426    1.82572441803556
O           2.31123936281529    0.82481008125223   -0.58948238715361
H           1.83210365034510    0.40956327256537    0.76116007319078
H           1.90915975839986    0.15155597430072   -1.17671848563990
H           1.81980801870691    1.65713313089052   -0.79710598550472
O           0.22175173100777   -2.10140114432993    1.41240665439273
H          -0.64338243589424   -1.92190691252318    1.96541645273476
H          -0.18532194695636   -2.08645937336105    0.42591451921786
H           0.78498621627280   -1.24501083572133    1.51415083872371
O          -1.24452318495919    0.87508892293562    1.33031166624392
H          -1.27894471979834    0.75252701252001    0.35962060309334
H          -1.83446646259691   -0.44686958278053    2.09835870303027
H          -0.30468675771335    0.91127159602972    1.55441574857720
N           0.56786194244793    2.80584496416737   -1.16018415482313
H           0.66223056917350    3.35142717710215   -2.00729524846086
H           0.19648707871729    3.41473627393245   -0.44155134574759
H          -0.12742894801838    2.08101849189820   -1.33515968596880
