    26
        -50.44991643  Gyration_radius:  2.48990128014 Dipole_moment: 0.421
 S           0.80724410729958   -1.79218691785318   -0.32147027113104
O           2.01050150644517   -1.05430751027888    0.09375421481995
O           0.01504831695770   -2.18777988478221    0.82005921910026
O           0.07399288725285   -1.07537391494743   -1.33968738438665
O           1.33345838052598   -3.12429636326685   -0.98928335777963
H           1.55710091636407   -3.62652714966990   -0.21339819562023
O           2.56030005094943    2.21295395497959   -0.42692591518108
H           3.15809216285884    1.62719318533731   -0.89728578911634
O          -0.68062352034908    1.52091537530696    1.46506094689403
H          -1.01596245677061    2.04621884186692    2.19300464468068
O           1.78402752612394    0.89317570793676    1.57456004773430
H           2.19394161662968    1.54675413017016    0.87368538035730
H           0.78179031328174    1.12907052566166    1.60407236831944
H           1.86803439846720   -0.02605309798482    1.03876142402650
O          -2.04519333283449   -0.59850478764074    1.35221275524846
H          -1.25792818597232    0.66566743620313    1.44177298326119
H          -2.47946597993788   -0.57406770381874    0.46443554463565
H          -1.34768937816064   -1.28074934890457    1.26359385647075
O           0.15564906970797    1.59444928914954   -1.23090249674377
H           1.66967087397191    2.10476150054120   -0.86573919577458
H           0.14637997583500    0.62748187869641   -1.38367559372487
H          -0.36914162255256    1.73622306778149   -0.43135019599014
N          -2.76778994397487   -0.56301058226640   -1.24900023272672
H          -2.96133405615064    0.30251813202486   -1.73741730333092
H          -3.38064776311786   -1.27377593230009   -1.62769629945402
H          -1.80945586283226   -0.83074981191818   -1.47114115456252
