    26
        -50.45381431  Gyration_radius:  2.64854754451 Dipole_moment: 1.736
 S          -0.32233968915851    0.33510187729557    0.65271188172251
O          -0.50645690648052   -0.24817238340204   -0.66516346594396
O          -0.64746527827776   -0.71037104822101    1.71269921324768
O           0.99672577303305    0.85171604467032    0.88887471952288
O          -1.36419232607054    1.41986813136853    0.87062213044104
O           0.11147349257772   -4.04209498373109    0.58582288010482
H           0.79037946207138   -3.34131419843599    0.40693015931220
H           0.23833051636912   -4.31713186333073    1.49530315675965
O           1.61742841666901    3.39743390769931    0.33499952349144
H           1.79197610099050    3.82360100920959    1.17615434345080
H           1.54388757919515    2.44121165499455    0.52256106307861
O          -0.65517544701116    1.58851915169653   -2.60964791874575
H          -0.53809501010569    0.85148798429900   -1.97873862376864
H          -1.41996875686214    1.37051430588806   -3.14564900765376
O          -1.91712326883985   -2.37926508769307    0.35546739043565
H          -1.27209620358026   -3.13514314226248    0.39724425093030
H          -1.26640575112364   -1.41848250479240    1.26893363620542
H          -1.69837307034996   -1.89055485603349   -0.44867893441712
O          -0.86081740176498    3.34027042730053   -0.61487780894225
H          -0.78422557523407    2.87456260636563   -1.47871115469591
H          -1.20332115839865    2.28876747799283    0.25554188493404
H           0.06341744868186    3.55442453180036   -0.34416092083346
N           1.72319773180044   -1.92299117627162    0.15228221549776
H           1.80244488436564   -1.32855061384094    0.96984084790860
H           1.13282994385915   -1.41069266068383   -0.49549022928616
H           2.64396448368655   -1.99271459186100   -0.26487122275994
