    26
        -50.44772981  Gyration_radius:  2.51298390738 Dipole_moment: 2.775
 S           0.77081036114043   -1.26843331054067   -1.50414720611052
O           2.10635884550303   -0.88553327059454   -1.01384089695085
O           0.28053469178753   -2.45587828799838   -0.84576284951907
O          -0.15225994721876   -0.15641286680305   -1.47782716183083
O           0.98671797762043   -1.64204295021984   -3.02530124502711
H           1.53062778135847   -2.41784557353034   -2.94152648212846
O           1.90958065696333    2.80984730033681    0.28963777192468
H           1.95102945493787    3.52608376144510    0.92508720436391
O          -0.06606608429347    0.18156694108903    2.15376988203155
H          -0.05328175673381    0.01477832551447    3.09751629309941
O           2.23407549099130    0.40270598274223    1.06247919551211
H           2.23864632740999    1.37897818330735    0.74695479361311
H           1.32897680272193    0.26569761045606    1.52409542000800
H           2.21122744147952   -0.19151748606958    0.14825632582828
O          -1.33507609379990   -1.74770849234024    1.13203661178020
H          -2.05853983831437   -1.33219845404607    0.60495309130958
H          -0.74172344912905   -2.14011572800965    0.45722162421077
H          -0.58358901564910   -0.61055144046008    1.74226505734773
O          -0.55899666951379    2.00343966109204    0.05943104556787
H          -0.46484324095142    1.31108019527642   -0.62275459348713
H          -0.66504491183019    1.51546360460728    0.88786007584709
H           0.94370906243553    2.65039621343698    0.09414046668092
N          -2.91104365385280   -0.43864852957519   -0.63768505119703
H          -3.28848059028593    0.48495217723082   -0.46546087507301
H          -3.56662112671114   -0.93623664296295   -1.22647046759127
H          -2.04672851720133   -0.32186689470788   -1.16492802059344
