    26
        -50.45282149  Gyration_radius:  2.40505661827 Dipole_moment: 1.362
 S           0.28609418058202    1.13821960929645    1.54105966283575
O           0.13481960032019   -0.29464742821287    1.41180804009979
O           1.60771320223540    1.60915871236108    1.82691191455028
O          -0.33225980716896    1.81905774565609    0.38688560354154
O          -0.62843311137615    1.53521101758252    2.78229300582853
H          -0.24347306360493    2.35624125530323    3.06980635431245
O          -2.28245286863837   -1.33005515005952    1.14228160817389
H          -1.53985739998017   -0.95363390130801    1.65392876386398
O          -0.80740514326722   -0.53863124099400   -2.40426930595172
H          -1.03060113612842   -0.40117259746146   -3.32574404378507
O           1.11729211339548    0.99673389508765   -1.75484332215184
H           0.01133336514927    0.04011985569172   -2.21579896693392
H           0.68386864601066    1.52142528056445   -1.06041862513775
H           1.82214246055641    0.49216156107053   -1.27191574368740
O          -0.34007173264706   -2.40796757831472   -0.33387099838546
H          -0.40078776509688   -1.98911256741267   -1.20193257744761
H           0.11264348370740   -1.77048083671551    0.23865701583086
H          -1.84446591792655   -2.04185541240134    0.62405468478865
O          -2.22861621805855    0.50712832877752   -0.55163111465425
H          -1.76167546432079    0.06851948999448   -1.35137752657469
H          -2.37969926642627   -0.27073284297977    0.16567404284069
H          -1.48992907715283    1.12598935736484   -0.13538684055810
N           2.75847947729923   -0.23683246241969   -0.04761645161289
H           3.76570336146327   -0.19258826822630   -0.14386793314457
H           2.51949918747645   -1.17518337779574    0.24834962583930
H           2.49013886355878    0.39292755554408    0.70696312777990
