    26
        -50.45381457  Gyration_radius:  2.64817598741 Dipole_moment: 1.733
 S          -0.60334829585697    0.29966758072807   -0.43879845955655
O          -1.87229971539248    0.45437698252246    0.39039373901526
O           0.55274256986010    0.53150178971584    0.41018827411411
O          -0.61349841202810   -0.98453738957376   -1.08174274152773
O          -0.69753291315777    1.41100792467942   -1.47114346563753
O           2.79864271787508    0.99646653052321   -0.97386508488745
H           3.20197237994991    1.78210793335021   -0.59994235097369
H           2.04869989394102    0.76460876159998   -0.39175520131200
O          -1.35973907332966   -0.50552183978850    3.81865391956618
H          -2.29057060912990   -0.72291706109667    3.89101279816000
H          -0.98442779628140   -1.10555398452550    3.12352449168644
O           0.49811411354749   -1.34505816456362   -3.49110704579541
H           0.11520626945864   -1.36641393378057   -2.59225955610592
H          -0.21931812303094   -1.54940626329110   -4.09372766450958
O          -0.98846049794178    1.67131154621029    2.38453444998931
H          -1.12037451062492    0.96188061409492    3.06900397713197
H          -0.08759138994486    1.55542136142824    2.05534043001339
H          -1.63315922941019    1.04088984540306    1.21536872358773
O           1.17792133070305    1.18747547464757   -3.07758072816412
H           1.04378374631638    0.26552385589603   -3.40234028441623
H           0.08918247730730    1.37163863058294   -2.20531246334022
H           1.93646411856992    1.14175154176825   -2.45181887717175
N          -0.36942277109532   -1.88937080455481    1.72586789577065
H           0.10951130998026   -2.77764978344977    1.81650341830202
H           0.30934573907542   -1.20905914024382    1.39861563026809
H          -1.04184332939009   -1.98014199830828    0.97238617575826
