    26
        -50.45282152  Gyration_radius:  2.40488922486 Dipole_moment: 1.359
 S           1.14040970590862   -1.37995437041318   -0.73863756683762
O           0.99071879148164   -0.86442419063440    0.60466876827643
O           0.59717250797480   -2.68300473094311   -0.97774309099002
O           0.68591220668910   -0.37605713098970   -1.72025486774282
O           2.71311190678432   -1.48258033330448   -0.96359005851130
H           2.78289389088857   -2.13613804960236   -1.65132112718890
O           2.16690215608082    1.40905148586729    1.26462031272266
H           2.14668080946862    0.44648030203355    1.09749888051513
O          -1.43585191237015    2.15712831793334   -0.09065651424491
H          -2.00572010689533    2.83892510072088   -0.44877595620630
O          -0.28889539089459    1.00231200664277    2.22211683501805
H           1.42192017522913    1.53105700941583    1.89493158735701
H          -0.88889471282930    1.46366042016335    1.62226392743708
H          -0.05753036458696    0.17117462550974    1.78071691582126
O          -1.96166652191182   -0.06850677196553   -1.21026370880600
H          -1.73545959394506    1.27842524574239   -0.51369241581664
H          -1.10045310699609   -0.25491585178749   -1.62126882251933
H          -2.06730886254075   -0.78691165771990   -0.53395371086167
O           0.99040287456777    1.94553660261643   -0.87441371259407
H           0.92199664838870    0.98729905143650   -1.29764100330139
H           0.03446120226477    2.14818797306914   -0.56594207712184
H           1.56765434036725    1.81833478132172    0.01605113679117
N          -1.75791780715044   -2.06923746878466    0.54623274992510
H          -1.47071907631413   -1.84490837694463    1.49089217840036
H          -0.94115288149564   -2.44319685608876    0.06556352180490
H          -2.44866686828331   -2.80773715401897    0.60259784870147
