    26
        -50.45282150  Gyration_radius:  2.40492732218 Dipole_moment: 1.359
 S           1.48988385328577   -1.10135219285638   -0.56312955926546
O           1.10875035360586   -0.57590447615258    0.72972603504446
O           1.28814477354241   -2.50559551794773   -0.75710952862626
O           0.90048021150981   -0.27946149308491   -1.63782610213791
O           3.05663784580712   -0.83755337496451   -0.66509314038031
H           3.33597425945753   -1.48588521452248   -1.30273574746939
O          -1.88600579307515    1.74767202654705   -0.33344895576622
H          -2.56589541956147    2.25771332372012   -0.77554422791170
O           1.66171893544737    1.93910956356375    1.32668167477955
H           1.88063636556890    0.99265821062644    1.22057950481147
O          -1.77970778628984   -0.58709404785283   -1.34389731302516
H          -1.93476876828244    0.80481600941378   -0.72012861119995
H          -0.86659031125814   -0.58186817821055   -1.67787313391255
H          -1.77295130145956   -1.27894121930776   -0.63260301611462
O           0.58097220863235    2.08375037679693   -0.92230124929731
H          -0.41879259236495    2.06698339578344   -0.69814203199833
H           1.09322783525343    2.13757726281403    0.01435061022045
H           0.77466598661611    1.11886624467971   -1.28715132218131
O          -0.70472953668021    1.00467794024690    2.12635022286356
H           0.85746950146040    1.90921100366612    1.89190496212770
H          -1.34202915908006    1.28254910356080    1.45605945075968
H          -0.24891777145305    0.23317138426024    1.75732623626392
N          -1.26765391384178   -2.40123490262407    0.54721744834261
H          -1.76936627669711   -3.27942535638629    0.60009276862372
H          -1.12331398847900   -2.07273753206525    1.49403632750710
H          -0.34783952486726   -2.59170234184020    0.15265868474398
