    26
        -50.44773023  Gyration_radius:  2.51349074801 Dipole_moment: 2.772
 S           0.43087356734327   -1.91044652491889   -0.79207324893656
O           0.05905495482913   -2.57044328684690    0.43691094428287
O          -0.44965865815313   -0.82804292209082   -1.16938496082581
O           1.84303753719419   -1.49077124347584   -0.77947136811039
O           0.33677074345758   -2.99300860918028   -1.94060662743863
H           0.85955275417317   -3.69351278430251   -1.56565439692839
O           1.99407522512579    2.36803552014061   -1.43799236722582
H           2.17171361954269    3.29103781096231   -1.25085591770639
O           0.36165168421488    1.19925458896682    1.76245814476090
H           0.55426268547686    1.50750208968912    2.64930326816149
O           2.40846769353167    0.60304624129322    0.35342469276211
H           1.60836219389547    0.80922694751466    0.96039394723344
H           2.19198802170070   -0.34662295128736   -0.13666601214196
H           2.37429963560189    1.30311092873446   -0.39587880666613
O          -1.12116907747533   -0.82505063217123    2.04463300758789
H          -1.92621490200963   -0.63422081478717    1.50661435899920
H          -0.67974771858911   -1.55660277850032    1.56359501103217
H          -0.24258198088679    0.37187425696005    1.88491188616597
O          -0.48870721896345    1.83408815362788   -0.84953155893434
H          -0.54768315299442    0.89424991472219   -1.10841690088858
H          -0.44299226443964    1.81821962844509    0.11653251912480
H           1.00552639971633    2.24371963458393   -1.37519270612420
N          -2.98952778482475   -0.35760421589644    0.14244271997616
H          -3.31208071790780    0.56965359781640   -0.10521170269980
H          -3.75535175531601   -1.00185165036353   -0.00738458666396
H          -2.24392148424502   -0.60484087963605   -0.50689932879708
