    26
        -50.44773019  Gyration_radius:  2.51346217592 Dipole_moment: 2.777
 S           0.52245280758194   -0.68818822638574   -1.92776572238407
O           0.28763685300982   -2.06619797542311   -1.56678961806228
O          -0.46267885457260    0.23316847996130   -1.40806779912874
O           1.89542777090398   -0.26581502104369   -1.60135492041394
O           0.43349957244023   -0.60567182359573   -3.50429967884337
H           1.03277860408308   -1.30189006643851   -3.75100515776512
O           1.70013123749463    2.86340509391991    0.74880940931313
H           1.81824722310435    3.37750190363722    1.54898338779122
O           0.38855267162408   -0.41802169686465    2.08577999775442
H           0.61815812146531   -0.82959232991794    2.92036021625091
O           2.37297310363251    0.40566442201633    0.70274881345602
H           1.60298274736536    0.02474846234892    1.26260743313807
H           2.19783659310845    0.08841127166516   -0.32525261480516
H           2.23277460720727    1.42200618423361    0.69548974602148
O          -0.90986341099172   -2.15731463009713    0.79553890034608
H          -1.76261013414448   -1.72149523473181    0.55710140944918
H          -0.44746247604179   -2.26365297839681   -0.06261780181141
H          -0.13991534071000   -1.13384119484366    1.56319376045560
O          -0.68735257021905    1.81657029482748    0.74429425516592
H           0.73081585755676    2.63094442016942    0.69326708696912
H          -0.69046399872951    1.35519796169479   -0.11650806770134
H          -0.57430898783105    1.11227416440408    1.39755266766702
N          -2.93603805358513   -0.65620893087352   -0.18913014143976
H          -3.34496964826854    0.12257501860327    0.31226897650051
H          -3.65859399209838   -1.06608674514258   -0.76696415811140
H          -2.22001029338204   -0.27849081372869   -0.80824040981237
