    26
        -50.44773023  Gyration_radius:  2.51359527265 Dipole_moment: 2.770
 S          -1.16205282264879    1.49259498132712   -0.93918783216270
O          -1.28187339538395    0.72937540764574    0.28249287077231
O          -0.06420717878175    2.43010954816842   -0.94227412794944
O          -1.14050527682666    0.62449819282234   -2.12931438169704
O          -2.48932357811220    2.34081210632357   -1.07628510800334
H          -2.28077542968012    2.87289197731236   -1.83667507234137
O           1.93805794483420   -0.94741894857559   -0.14295815638928
H           2.85664441181965   -1.15479549567331   -0.32129262156140
O          -1.05740345943854   -3.10707455390945   -0.94170233525700
H          -0.70728229374763   -3.99198808072022   -0.82817830994257
O          -0.46052513066593   -1.67121793587635    1.15051288073303
H          -0.89025453513681   -0.82275538057669    0.92858131061127
H          -0.97091362407618   -2.64503644256052   -0.06091621677579
H           0.48144724076037   -1.51473776272988    0.99624552960943
O           1.90357343805082    1.47866268573188    0.55642469529535
H           1.27066573672443    1.92700391036247   -0.04343076811241
H           1.45256775555185    1.48950333619782    1.43417969341227
H           1.93085849500061    0.04467269406039    0.14051491066751
O           0.34217608989400   -1.32188309268560   -2.10346890558539
H          -0.25722296208893   -2.08079046147807   -1.76056720755304
H          -0.30892833026215   -0.44869335095870   -2.15532175275667
H           1.01589459807086   -1.14139995375281   -1.35208890380579
N           0.22042495849482    1.37570781645778    2.67381379627047
H          -0.01106544221236    2.21030450367018    3.19707539167905
H           0.17024354839362    0.58838452296604    3.30840652138602
H          -0.50022078853644    1.24326978645107    1.96541410945556
