    26
        -50.46489354  Gyration_radius:  2.55392350976 Dipole_moment: 4.636
 S          -0.71631111203137    0.02850327046764    0.40967548816738
O          -1.16713134464404    0.15247461764389    1.86524471230591
O          -1.89419943825549   -0.08029297290997   -0.42727064517961
O           0.03145397611997    1.25627857122263    0.05447254619590
O           0.15196036893079   -1.14114990361195    0.27254518568030
O           2.34203012514569   -1.12477596709346    1.74099194656341
H           2.47061829489285   -2.02809105028680    2.03515910262867
H           1.58100221059827   -1.14589188201765    1.11985926748222
O          -2.23761399668488   -1.99816418448338   -2.20518329019273
H          -2.21236876609933   -1.29757341502455   -1.51421294966133
H          -2.67076217036773   -2.74982104563587   -1.79860916895429
O           1.07565465584962    2.87199328560802    1.90982561525391
H           0.76371943542230    2.33395079957141    1.15392527656166
H           0.35874659205177    3.47067878824099    2.12610347021671
O           0.39430361929468   -1.57959280019199   -2.30984446015509
H           0.07784390057412   -0.14044370891230   -2.53670259842348
H           0.46200954151248   -1.54689521889480   -1.32741335540479
H          -0.49000554222028   -1.97298794327869   -2.46886096548896
O           0.90300355002373    0.54732170859842    3.24624211018183
H           1.12916094091988    1.45266389291104    2.94471802471295
H          -0.34085319824963    0.28581166855672    2.47731174249642
H           1.56676762865960   -0.04316426874245    2.82508564841103
N          -0.29742766737534    0.89198477983792   -2.46210915914119
H          -0.09486585240650    1.17559764723061   -1.44058400780713
H          -1.31175393847523    0.85975219130778   -2.55347697655723
H           0.12501818683140    1.52183313988375   -3.13689253989430
