    26
        -50.44773021  Gyration_radius:  2.51353871459 Dipole_moment: 2.772
 S           0.18255142998535   -0.88825945579253   -1.90739674738336
O          -0.56418838197640   -2.05542534380802   -1.50190822574170
O          -0.35803698732434    0.35807593183161   -1.41363104794654
O           1.61674242667054   -1.02520696635320   -1.59982034428668
O           0.10768531618105   -0.82167357334954   -3.48534989238451
H           0.38461117801267   -1.70283935098272   -3.71253223905268
O           2.69531618652617    1.99051672817162    0.65430693709475
H           3.01698443875160    2.43899475596953    1.43787462579249
O           0.22659077188680   -0.47873369760249    2.09639160558493
H           0.28958468860306   -0.92308135869857    2.94325521699829
O           2.35387462987437   -0.53496497232533    0.68149018254992
H           1.50502008647898   -0.56917768283910    1.25539767344923
H           2.05278389300390   -0.78515736800414   -0.33602941490079
H           2.62189006536196    0.45479329867889    0.64381581485536
O          -1.66706625893674   -1.60828796491889    0.86602943431655
H          -0.54725046273381   -0.94569489117793    1.59846516407005
H          -2.28578972539025   -0.88080321152307    0.61706516141334
H          -1.29569131820897   -1.91009608876067    0.01023747187810
O           0.08889781678759    1.96067168098099    0.68943336754286
H           1.71146813227515    2.15391906438712    0.60897031350687
H          -0.10804134624050    1.51474314579980   -0.15682619472893
H          -0.07208929784221    1.28602433041557    1.36363366325768
N          -2.96300526722638    0.53577586909875   -0.15858886598647
H          -3.79634681908697    0.42147042615837   -0.72109302630254
H          -2.16573184452446    0.58797869039578   -0.79130120662015
H          -3.03076337090564    1.42643800424928    0.31811058302825
