    26
        -50.44773019  Gyration_radius:  2.51352159043 Dipole_moment: 2.767
 S           0.81626684443448   -1.62311797227877   -1.07709593688223
O           0.25992867156967   -2.58877959882983   -0.15931003902258
O          -0.07818228014396   -0.53503327048694   -1.40154307969194
O           2.13138778630717   -1.13690857150105   -0.62511922834114
O           1.10659958022484   -2.38997618146604   -2.42894568057922
H           1.60909930013865   -3.13080382275298   -2.10727451447252
O           1.97771822717927    2.76452182037516   -0.32326168745498
H           1.99982134001401    3.62044608791314    0.10739662060475
O          -0.18461839791471    0.74113060470172    2.02232568564082
H          -0.23276873245364    0.82975716413636    2.97545749833701
O           2.18131300438158    0.63476752562110    1.06188245387921
H           2.23533436130761    1.49695123571372    0.50831655573727
H           1.24711240038905    0.63607891622042    1.48394239617773
H           2.19186305303789   -0.17277600712750    0.32900314817777
O          -1.44688228104781   -1.37303027158958    1.46315654775775
H          -0.70059958286446   -0.12464620666414    1.80098283118264
H          -2.12756373807062   -1.10187003978265    0.80194326538323
H          -0.82639299480087   -1.93401943123733    0.95157161666858
O          -0.49430432835609    1.95671253433434   -0.50249957897836
H          -0.66532114975826    1.70305651068938    0.41513108639412
H           1.02170576576331    2.57095383600435   -0.53601736058928
H          -0.38475246830187    1.10921181444253   -0.97537367589819
N          -2.88370832387902   -0.55708375522510   -0.68072434912145
H          -3.24924862503147    0.38176519086684   -0.78092427607133
H          -3.51566949517534   -1.18783377255539   -1.15688530255010
H          -1.98813791694994   -0.58947431951612   -1.16613501628282
