    26
        -50.45683223  Gyration_radius:  2.43352044918 Dipole_moment: 3.400
 S           0.44110872712811    0.03432982771980   -1.78807907964651
O          -1.04349292426138    0.25308047902022   -1.45989560746666
O           1.14453993309059   -0.37651712055350   -0.59331431708310
O           0.53656711424040   -0.83292086451073   -2.90483076740717
O           0.96357018190590    1.44605532275302   -2.16550144620802
H           1.03281801755407    1.98167036421459   -1.33019171035674
O           1.11590370498559    2.76051580137444    0.09930879778475
H           1.73288622611112    3.49312164111199    0.05569408887419
O          -0.54851185852955   -0.12788561870774    2.49177510103684
H          -1.05675426779294   -0.37951903534911    3.26361386667737
O           1.91377432437130    0.86372907315554    1.66015339589604
H           1.91054234118872    0.24819865839885    0.90733047386680
H           1.49872107080905    2.09621095781123    0.75409801061981
H           1.16072340832829    0.58055859036506    2.20444176570309
O          -0.11712143842154   -2.18787769439978    0.95561964999298
H          -0.74543651630053   -2.48876706607922    0.26375111257334
H           0.55229880611607   -1.71176624056019    0.43857357275756
H          -0.43658888679343   -0.95926707688844    1.94515362709968
O          -1.33963271392625    1.62631357822761    0.63534794514193
H          -1.20297320168407    0.80712182591406   -0.60711815298384
H          -1.11009739543197    1.01833476366803    1.37482252789057
H          -0.61939918670929    2.26999883278766    0.56806894039715
N          -1.36809294444850   -2.62917012586372   -1.42303278695822
H          -2.19086529883053   -2.04721567140668   -1.52749625780230
H          -1.58052606608919   -3.53562083643640   -1.82355099382088
H          -0.64396115660776   -2.20271234576741   -1.99474176657989
