    26
        -50.45683226  Gyration_radius:  2.43356697316 Dipole_moment: 3.397
 S          -0.19498905074133   -0.09290564936317   -1.82895607295690
O          -0.38470737478887    0.96055506266887   -0.85676543288559
O          -0.02557820382956   -1.43625085635909   -1.10350350124775
O          -1.20595252982487   -0.23206286402297   -2.81232309263228
O           1.17799465460382    0.15254322584999   -2.50928568871763
H           1.83122985212366    0.40230615266867   -1.80196907685654
O           2.81100414343547    0.80986472413831   -0.56478930910370
H           3.56688140194771    1.31069934946180   -0.87636390174397
O           0.19725087448712    0.20062493309080    2.53930577129956
H           0.02723262267438   -0.03855933786879    3.45103962550474
O          -2.03041844496729    0.38407502583070    1.19998606325697
H          -1.59206596124921    0.82566229488634    0.45499790557864
H          -2.46710775615864   -0.38084652495228    0.76636722998841
H          -0.69511419242866    0.23622433445370    2.08669848927674
O           1.61372389953633   -1.26180168953650    0.80595822186632
H           0.63430644017474   -1.40203297889488   -0.31424342268545
H           2.28510642062453   -0.66044819981382    0.45209526544152
H           1.13397776618375   -0.77005903056148    1.51105554995386
O           1.21220751759705    2.20902848017064    0.90384830247983
H           0.49588404513852    2.05447261119634    0.26462009844648
H           0.96323554771181    1.67541723611161    1.67637992595396
H           2.27307461683261    1.42923932135130    0.02140032920926
N          -2.88818076746378   -1.44054507461722   -0.63130205901294
H          -2.50188166764588   -0.95791183247478   -1.43809724415843
H          -3.85470573826457   -1.66215720095037   -0.84070069748730
H          -2.38240810571085   -2.31513151246579   -0.55545328876812
