    26
        -50.45683224  Gyration_radius:  2.43360575335 Dipole_moment: 3.397
 S          -0.31564844767992   -0.63937377404873   -1.69826523561037
O           0.40312691417085    0.50256979075633   -1.17846870204276
O          -1.15535253656827   -1.27080154920118   -0.57759046404917
O          -1.15484846262806   -0.40056459567317   -2.81502091066653
O           0.73755485007080   -1.72434904828599   -2.04736433452475
H           1.40322277885877   -1.75559568825693   -1.30891366108117
O           0.44207900797569    0.98180399453669    2.31686807800667
H           0.20938718862290    1.31830512258191    3.18285505183883
O           2.43740241567913   -1.71303399663405   -0.04965076719985
H           3.29303671340049   -2.06847519272997   -0.29624226781533
O           2.50679606178343    0.81821221562921    0.45961080461569
H           1.99379510305794    0.98037102988861    1.26833121577107
H           2.57720229086272   -0.73692705582327    0.16049041176432
H           1.87409682772855    0.97657627108204   -0.26166397107141
O           0.18743527687027   -1.56331526568829    1.53789894883117
H           0.27850704252104   -0.65682089511838    1.91092536200883
H          -0.64030077070847   -1.40174868852900    0.30394126045305
H           1.05892487427387   -1.81624482288778    1.20013761440207
O          -0.98948013076674    2.12581497274123    0.46429784285554
H          -1.87647006292756    1.80622447750360    0.19029656442896
H          -0.15418353046269    1.45057842358149    1.66328585211263
H          -0.41674075965533    1.78753487396700   -0.24256108558060
N          -3.03348826034013    0.92064542675525   -0.87267276156840
H          -3.34058215302802    0.07567515048196   -0.40564096946069
H          -2.46938175422336    0.61969664713065   -1.66280115947615
H          -3.85609047689215    1.38324220624485   -1.24208271694123
