    26
        -50.45683217  Gyration_radius:  2.43359960251 Dipole_moment: 3.397
 S          -1.67245056186062    0.39506535086372    0.66448509674178
O          -1.23733898825322   -1.07402549754443    0.77554461645085
O          -0.72758052536131    1.11787802760278   -0.15743383582123
O          -3.02766960307779    0.43725027118176    0.25219524614041
O          -1.53912944108661    0.94567460574568    2.10921368674395
H          -0.57052664406967    1.05006894925368    2.31009418484102
O           2.29918931653606   -0.48673355169692   -1.00191566656063
H           2.94619952057142   -0.98305300389875   -1.50424367119115
O           1.03908368613924    1.19078733212645    2.52552410263294
H           1.23825239775871    1.82557936830104    3.21590032677651
O           1.79266387813402    1.97854606891487    0.18391543154177
H           1.40036056713123    1.57297991448968    1.66541396924978
H           2.22578185599269    1.23311995874203   -0.26350860188044
H           0.87039390890113    1.93884177556322   -0.12178152600410
O           1.21916755935872   -1.27910927393444    1.31197863373050
H          -0.23804792280571   -1.19667253272243    0.98969405439736
H           1.68450744197412   -1.04615987232423    0.47626208665568
H           1.36159548286277   -0.54430669837283    1.92623817487522
O           0.11610216881699   -0.14894911200325   -2.38381271352406
H          -0.61556818820600   -0.80322601119698   -2.40739827580310
H          -0.21963289101467    0.51923156517256   -1.76504332100275
H           1.48862629986555   -0.41056336114810   -1.58477838774637
N          -2.21880476708998   -1.47390092535390   -1.92518176737365
H          -2.08132064711684   -2.28369043299464   -1.33203973766646
H          -2.90849189358780   -1.72039664725108   -2.62569933791791
H          -2.62536201051382   -0.75423624751052   -1.33362276828738
