    26
        -50.45683223  Gyration_radius:  2.43353072685 Dipole_moment: 3.399
 S          -0.87281489675396   -1.50857027207208    0.59544118019322
O          -0.64721491583170   -0.93587448775133   -0.71299607290881
O          -0.48702087418935   -0.48735743161541    1.67612273618369
O          -2.18378111209181   -1.97714395917850    0.86044039264573
O           0.14992255378987   -2.66198408329795    0.77383007181018
H           1.02950103335483   -2.34885483958352    0.43063559837278
O           2.41616177353209   -1.73513191197678   -0.16689464706197
H           3.01512723164652   -2.43539804239974   -0.43168011952143
O           1.14573087110399    2.09600835910216   -0.90585363124902
H           1.32419943451422    3.03451603236424   -0.97453836828295
O           1.75516127718354    0.56626984261251    1.20080500743429
H           1.59291463367827    1.18922679376639    0.45600794549536
H           0.42213734956275   -0.03313355895861    1.51260186748103
H           2.26330225721499   -0.17505161735210    0.84048934809857
O          -1.41512958840072    1.62994161208188   -1.02680027934742
H           0.15024570270672    1.99547601264707   -0.94327504375218
H          -1.27563724656787    0.67830067714419   -1.15743704986590
H          -2.00754404023190    1.65224709588867   -0.24419253677998
O           1.53564316867996   -0.35419121067692   -2.16387145254096
H           2.15948601938419   -1.23870089961318   -1.00614895185028
H           0.62658230487094   -0.61692157754760   -1.93978735385509
H           1.57872222579169    0.58654743064680   -1.92581381945800
N          -2.95817364075680    0.91951975822842    1.10222922792701
H          -2.88976305556768   -0.08191205443999    0.94233729790266
H          -3.93876255207039    1.14366159303092    1.22616791611418
H          -2.48899594455087    1.09851073895265    1.98218073681544
