    26
        -50.45683206  Gyration_radius:  2.43366914554 Dipole_moment: 3.398
 S           1.70642532037565    0.59861106803956   -0.35472750982345
O           1.17588623040750    0.88975781939407    1.05717086620637
O           0.63180719749490    0.09381759506651   -1.18002262739534
O           2.38057784635169    1.74970692722333   -0.83304193146336
O           2.71553561979029   -0.56310476137410   -0.15411839910053
H           2.19727833151941   -1.39239255636852    0.02798772987146
O          -2.39525968590279   -0.79776455500696    0.39742589240665
H          -3.29449680042109   -0.73684107006838    0.72140817223603
O           1.24792875133083   -2.68812181376908    0.30530383788414
H           1.71204347850185   -3.50251304879987    0.10376567102223
O          -0.22029946562157   -1.01836444529229    1.93720585029922
H           0.59672664184720    0.13361447747170    1.44726117217224
H          -1.06923161489994   -0.96661682858252    1.44147622362215
H           0.25234191305335   -1.79472572808317    1.60343830692400
O          -0.71831455744618   -2.22349048701740   -1.30392324020498
H           0.48572431297813   -2.61728582837489   -0.35077338407514
H          -1.48196055666262   -1.93517600432821   -0.77745944402829
H          -0.29079522055365   -1.39492772599578   -1.58021886123606
O          -1.74370850007893    1.34666515301185   -0.93172499915272
H          -2.21127827130344    0.06018338014826   -0.08489141810467
H          -1.38332670303359    2.15603639695780   -0.50864895623047
H          -0.94741376863190    0.92741978687781   -1.29527938780378
N          -0.06965575268530    3.28504473389569   -0.00510754779448
H           0.76793994307401    2.90768969669006   -0.44014177459635
H           0.07387485248486    3.21247058866409    0.99516147092387
H          -0.11834953196737    4.27030721962117   -0.23752570256057
