    26
        -50.45683220  Gyration_radius:  2.43363993425 Dipole_moment: 3.399
 S           0.15918781020563   -0.24301403740098   -1.81976069014324
O           0.59997866662788    0.78858120742950   -0.90737044702084
O          -0.83427960584476   -1.17084940706945   -1.10426895158345
O          -0.42408220031311    0.19726583967471   -3.03393876490287
O           1.38473814722367   -1.14771783189470   -2.11634008361418
H           1.86164792688698   -1.31009211467802   -1.25866620926999
O           2.56650697175008   -1.49924393032264    0.19893665175591
H           3.49139689084275   -1.73373627197858    0.10487486024296
O          -0.21809789467385    0.43990086861703    2.50833327348373
H          -0.68086120045561    0.54919165683482    3.33969232523133
O           2.22097963015138    0.84260959536752    1.23221112902013
H           1.52149065327437    0.77958728931727    1.90316245908365
H           2.53948607103513   -0.59228304212614    0.63844527669140
H           1.75588671855826    1.12505465432294    0.42624502060895
O           0.01099238859008   -1.86332876076016    1.16959368052255
H          -0.52403058157281   -1.47062125085162   -0.16981154627013
H           0.96011188246393   -1.97618151172809    1.01471879920064
H          -0.09210805631490   -1.06513507879459    1.73652540685784
O          -1.31159309494631    1.89273184766298    0.64196737317112
H          -2.06839516601931    1.59054120269771    0.09430171752474
H          -0.69960767882427    1.01036029303194    1.84107515044548
H          -0.55667405182788    1.76585892887493    0.04525188548228
N          -2.83872206390987    0.90671489514293   -1.38619978559831
H          -3.60394458848073    1.39030940100051   -1.84207071635613
H          -3.14234494207031   -0.04193520147264   -1.20071954665787
H          -2.07766262234958    0.83543077910348   -2.05618828790475
