    26
        -50.45683225  Gyration_radius:  2.4335585953 Dipole_moment: 3.398
 S          -1.65857366570274   -0.10556721077931    0.79425236572497
O          -0.74446544470676   -1.08837261396848    0.25630511227228
O          -1.20305452832639    1.30096353848647    0.37762106363898
O          -3.02460885702355   -0.26111519169492    0.45047520506647
O          -1.49371489141114   -0.12192316034062    2.33727369944608
H          -0.52157769382207   -0.17127142276183    2.54197136504104
O           1.09135608240286   -0.26229181752796    2.75952455513061
H           1.30144253537273   -0.62239050783379    3.62292456440133
O           2.27819220495963    0.06152483625648   -1.15470772858741
H           2.91882891156144    0.33681245478716   -1.81133285972415
O           1.26850387354823    1.62966497551274    0.76141188153833
H           1.41795560609206    1.15046568007484    1.58945010146314
H           1.70936883614072    1.11225627953844    0.04935687222589
H          -0.19722195318950    1.46998067179834    0.51656552326536
O           0.05463808189987   -0.68771424199351   -2.28781324106822
H          -0.66973917194955   -0.06810647642036   -2.52298387004579
H           1.45144146121450   -0.19442366918720   -1.65814584860127
H          -0.27270171828730   -1.09227031947117   -1.46846052354673
O           1.77350834768708   -1.82865418446209    0.82257203106380
H           2.20294100016029   -1.29307725634614    0.13532947998521
H           1.42516689633670   -0.92634522285988    2.07817760905314
H           0.84404822382366   -1.87945663587380    0.54130725871929
N          -2.25257602613827    0.75964775791682   -2.27197236297996
H          -2.09002348393498    1.72222658643850   -2.00075149456956
H          -2.65120355428701    0.29861186218056   -1.45856163123665
H          -2.95793108242088    0.76082529853248   -2.99978911767338
