    26
        -50.45683221  Gyration_radius:  2.43361025073 Dipole_moment: 3.400
 S           1.20149164393054    0.36399065688270    1.34885971620782
O           1.34063485462737    0.06730393025559   -0.05952798126059
O          -0.23875375454474    0.07040764022155    1.79528203205513
O           2.09337689929968   -0.30400355616532    2.22442361431099
O           1.34858748089964    1.90028096642340    1.51069666517271
H           0.83202233378486    2.33701040243509    0.78134031270444
O          -0.03501127719473    2.94308844326092   -0.45839314375672
H           0.25105371631592    3.83228214320210   -0.67460624466343
O          -1.59342747791237   -0.56182522697908   -1.91761099219175
H          -2.29511286229823   -1.04176855533975   -2.35869705584391
O           0.16150442143651   -2.20370892466813   -0.91062766489300
H          -0.97099534341289   -1.25210030486299   -1.54536761073767
H           0.79927993285061   -1.48887034937431   -0.75445225339923
H           0.07548136563855   -2.60993620849057   -0.02093664729838
O           0.49135426377101    1.23521259587769   -2.32302616336921
H          -0.29057087529384    0.67342301943628   -2.45107810284234
H           0.18237282422621    2.36553112083616   -1.25576550575821
H           1.04774887029980    0.73455386121128   -1.70222339327494
O          -1.92647686713368    1.04499986739564    0.19331107639709
H          -1.51643879198182    1.88554703156988   -0.05749522566297
H          -1.89279926347277    0.46366224243180   -0.60049017929503
H          -0.95564695434627    0.45003436465829    1.16181527967956
N           0.41606453436976   -2.75502490314936    1.74449339538858
H          -0.39550694460558   -2.45264359684851    2.27020565730374
H           1.14079338277003   -2.06394221507791    1.91850483089661
H           0.72897389797097   -3.63350442513463    2.14136558413299
