    26
        -50.45567462  Gyration_radius:  2.46069287224 Dipole_moment: 5.093
 S           0.80987639427386   -1.49728663007554   -0.94445020176249
O           0.82922742976509   -1.88338067496241    0.54795676053664
O           0.25196924425652   -0.17323686292305   -1.07061728500604
O           2.11645576884712   -1.65035634496047   -1.50743362439567
O          -0.15276604956471   -2.51245783486778   -1.56722812457498
H          -1.05701199006163   -2.33039832648174   -1.07540280512889
O           1.65962871684069    1.95671419587434    0.97321372248971
H           2.34585416600473    2.26481964581994    1.56751303052625
O          -2.32290097814908    0.83074912328420    0.80350068975742
H          -2.94419611080620    1.38979167465491    1.27238238627423
O           2.98747032266139    0.83964155375639   -1.04388884464054
H           2.79828391989338   -0.10989766396043   -1.17830268236508
H           2.70922341566018    1.26766855469627   -1.85672482471305
H           2.13011531291272    1.51356485851436    0.22379302915325
O           0.01913038385732    0.04237504958281    1.95293440813566
H          -0.86579317093667    0.26938050904920    1.60250600825625
H           0.50003181990714   -1.11349630352397    1.15444183117756
H           0.61495143292838    0.76152005864850    1.65093181629416
O          -0.64895739958003    2.28851395877561   -0.60680543150489
H          -1.79133960658624    1.43343169952484    0.21577915997441
H           0.06977980921501    2.52412142534420   -0.00403408215848
H          -0.33543780048787    1.46959397588186   -1.02788640453525
N          -2.23586122928059   -1.96061795850964   -0.18843258645361
H          -2.25403638733549   -0.95624861590212   -0.02244983535517
H          -2.10509828057378   -2.42378535387370    0.70204222208416
H          -3.12859912364292   -2.24072371337221   -0.57333834205577
