    26
        -50.45567453  Gyration_radius:  2.46070746798 Dipole_moment: 5.094
 S           1.45704675474946   -0.64378711510907   -1.11862623002761
O           1.18756824813988   -1.76599534230427   -0.09665690910671
O           0.57450087850065    0.46075114160132   -0.83349433384164
O           2.84834718607617   -0.30951047333823   -1.12466459791424
O           1.06227741439575   -1.27302041983224   -2.45795039118477
H           0.04831314823347   -1.49539233488398   -2.33806799772476
O          -2.59180759959884   -0.02270598065383    0.10990518477356
H          -3.45804406229851    0.11601028548840    0.49563032719339
O           0.64537752394545    1.31208061356372    2.32214524808120
H           1.01470625443682    1.33371540581839    3.20653631677691
O          -0.52597890564076   -1.01227278319749    1.58662842148636
H          -0.12238022715809   -0.17706582653307    1.90743389544632
H          -1.30755891882405   -0.74273016996683    1.06323722444771
H           0.48524363358985   -1.48945041535857    0.61007359630453
O          -1.13230125288603    2.15624900168057    0.30623246637625
H          -0.47945604839160    1.73714485086127   -0.28059858444034
H          -2.13346906695029    0.86096764775285    0.12448427603878
H          -0.71372740404101    2.11686752184783    1.17724194197899
O           2.74763934443511    1.62782738843502    0.72210946978159
H           1.41439451326898    1.40321114604525    1.70588241195359
H           2.90507967221620    0.88400570219303    0.10773646555679
H           2.58078578807640    2.38667460121438    0.15850002121103
N          -1.38282861090576   -1.80655230948193   -1.92525495949763
H          -1.75355391997843   -1.06081476410419   -1.33953919171684
H          -1.36513221116505   -2.65721332447632   -1.37696820671197
H          -2.00504213221375   -1.93899403722553   -2.71195585521173
