    26
        -50.45567407  Gyration_radius:  2.46062424684 Dipole_moment: 5.102
 S           1.35064847982085    0.10520019915418   -1.39743051334319
O           1.22619601360146    1.53433514773420   -0.83289053695147
O           0.40172937941567   -0.74261706550001   -0.71821044444351
O           1.21786138676864    0.12699699699856   -2.82201386793330
O           2.77100557336380   -0.31394119394409   -1.00799667616510
H           2.76193609238607   -0.27854328977760    0.03679755876981
O          -0.20439329634658   -0.43387522084048    2.54696650173315
H          -0.63618245848478   -0.47924585678979    3.40131299528171
O          -2.60274832380647    0.54780024214460   -0.68318837220625
H          -3.29400740999975    1.14492822048533   -0.97402518605618
O          -1.43106603795326   -0.25541187386429   -2.93275407252475
H          -2.13542039853417    0.25477156436990   -1.50494392604820
H          -0.48296136189613   -0.02703732492058   -2.99918949617750
H          -1.45932161861376   -1.21456941226068   -2.95365203769245
O          -0.65294766983988    1.64266965661489    0.83934486370508
H          -1.39832943547796    1.28051665983825    0.31352812413777
H          -0.44673498452247    0.95923380081943    1.50851139636842
H           0.46265451138602    1.61411864868063   -0.14058392019656
O          -1.62593204479935   -1.68801289449518    0.72414711389887
H          -2.26553299526850   -1.04072661564008    0.39645409657080
H          -0.87295718205894   -1.59412392062390    0.11547978198719
H          -0.73685506525362   -1.00881344582032    1.93277049924216
N           2.55725263243277   -0.08181119499532    1.53063850653854
H           3.22125930785411   -0.59548230866191    2.09525203248391
H           1.61616884958726   -0.36243916033420    1.79951315854440
H           2.65867804623198    0.90607962161491    1.72616244048310
