    26
        -50.44849470  Gyration_radius:  2.48590477023 Dipole_moment: 4.263
 S          -1.35165624420995   -0.57304534180989   -1.31180786706872
O          -0.28175468562549    0.33737937612630   -1.76110658838994
O          -1.44395674526619   -1.74968056474760   -2.12660795385843
O          -1.25967007302270   -0.80035760230760    0.11643074517259
O          -2.70714243277021    0.23085985871753   -1.53024320517203
H          -3.00566977393615   -0.09602508641422   -2.37266018707085
O           1.66865603530572    0.31271021850813    1.72004483938512
H           2.61107648854685    0.32249297944998    1.89195489735659
O          -1.05111982630411    2.98439883677971    1.11618821245689
H          -0.84916398066922    3.67523810955806    1.74926033155611
O           1.01562850801753   -1.99146645259311    0.85442647398265
H           0.07337296690272   -1.78257942792256    0.71977126951006
H           1.34807445909856   -2.11876272713385   -0.06848794791207
H           1.44575857898501   -0.63538233059690    1.41210986782398
O          -1.14118318177858    0.68522768075235    2.33006567948919
H          -1.36674206117538    0.09817897216191    1.58183379619440
H          -0.21738725325704    0.48867636850759    2.52817458689226
H          -1.25217379039451    2.15923646543728    1.64120892383580
O           0.82052507505555    1.82466317644491   -0.16188614881673
H           0.32566359418814    1.17231524193388   -0.88643870260000
H           0.07538528680594    2.37959390847260    0.27106695713862
H           1.18926223520037    1.21803152021212    0.57717184161462
N           1.40043625893283   -2.06050581521906   -1.79799114007700
H           1.85381888076824   -2.79236004565417   -2.33228106112420
H           1.70010310227802   -1.17024861819748   -2.17775755819224
H           0.39985859832569   -2.11858871046368   -1.98244006213013
