    26
        -50.44849469  Gyration_radius:  2.48590076349 Dipole_moment: 4.261
 S           0.86553062025979   -0.69063827272515   -1.62741490127113
O           0.67884630381826   -0.36665618071009   -3.01200466463736
O           1.53614987752318    0.39235284495329   -0.88380844905245
O          -0.31699504578976   -1.13754473540326   -0.91899072995033
O           1.87737803821870   -1.91775707674845   -1.58672224833043
H           2.32567391455348   -1.84148259887708   -2.42258865505010
O           1.44957310724072   -1.63982752372473    2.54274672820218
H           1.41543348436306   -1.75444660775963    3.49380010871967
O          -1.40232818528037    0.84639042798967    1.77737715176621
H          -1.74091336970850    1.64549892393880    2.18306017922482
O          -0.92044091338149   -2.00186170383510    1.53273144587542
H          -1.40969487021570   -1.21246175749463    1.79496605798642
H          -0.72945347038295   -1.87353258126976    0.58281102509497
H           0.57574415366599   -1.95922587884808    2.18033789266717
O           1.13662632892859    0.66784851876183    1.51382346059065
H           1.33090043613557    0.54547470324379    0.44465115569830
H           0.12264863897463    0.77190283333044    1.61905910640870
H           1.37698172105109   -0.22925962172422    1.94732120482058
O          -2.17153321416252    0.76714584257416   -0.64902106524855
H          -1.68329567416919    1.43835558684491   -1.18709142913338
H          -1.71374308379570   -0.06423629565021   -0.87001673268528
H          -1.76374877267555    0.83747468950264    0.82208233625102
N          -0.43518941751159    2.14734745448417   -2.15525417964578
H          -0.10613734084169    1.30297305384145   -2.62143076783768
H           0.35564458748901    2.49765367984707   -1.62759438524356
H          -0.65365783430249    2.82851227546025   -2.87282966522229
