    26
        -50.44849476  Gyration_radius:  2.48580946901 Dipole_moment: 4.262
 S          -0.49054099859309    0.30913712593741    1.88145218930512
O          -0.21055964037538    1.48059665685922    1.03010495963043
O          -1.76839714006313    0.39709519166311    2.52667767555629
O          -0.23270085591394   -0.91917385174943    1.15699971705176
O           0.60041159102274    0.35974495834050    3.03839022593893
H           0.12859634709027    0.78514143284064    3.74683911206865
O           0.29434957771485   -0.64295017268824   -2.31087254471126
H           0.04130142614921   -0.43430633476274   -3.21100547225832
O           3.35291155580205    0.07730343830398   -0.06969037706885
H           4.10591466797422   -0.04582962396082   -0.64987230814926
O          -1.79806298460317   -1.23455448986887   -0.98538723983052
H          -1.34044502077075   -1.37295016364237   -0.13625203979805
H          -2.33820993299490   -0.42341169338896   -0.81595607889495
H          -0.56573162066945   -0.90871069456443   -1.82818721812673
O           1.26411757026946    1.26594356021951   -0.90987242416833
H           2.15135883546870    0.89697703723790   -0.55330890971834
H           0.85968661917123    0.52351430520749   -1.48901069584980
H           0.61307201290858    1.37464838113051   -0.03803023474185
O           1.78437312832399   -1.99262552372688   -0.22170426360955
H           1.09120202526141   -1.73666272788057    0.41807254062068
H           1.36579860937956   -1.90580769464905   -1.08689285467939
H           2.87777117872406   -0.79949642244746   -0.02057038824078
N          -2.89576712659468    1.02497016837354   -0.04834930795936
H          -2.66943983621425    0.78315262398700    0.91543807245848
H          -3.87367300376289    1.28866102952634   -0.07669080814447
H          -2.34733700470208    1.84959352370141   -0.26232131668245
