    26
        -50.44849477  Gyration_radius:  2.4858165887 Dipole_moment: 4.262
 S           0.38860729467850   -0.94989021619863   -1.68007990550100
O           1.41746417408102   -0.94824432353784   -0.62331661932142
O           0.05945473467274   -2.27524201704865   -2.11849772408215
O          -0.73274173761099   -0.11463722003304   -1.29926855805644
O           1.06173366177467   -0.22062341417570   -2.92358290526033
H           1.36964371516026   -0.95234715654783   -3.44840070679944
O           1.40636322053108    3.02616657777397   -0.34262446609753
H           1.50326877090144    3.87491394445095    0.09213490804774
O          -0.83882324408580    0.98400708845841    2.04165037525779
H          -0.89978726084805    0.86551164956702    2.99035679338641
O           1.49987988306213    0.87125440194343    1.00980569322617
H           1.47859983589228    0.05973785011247    0.27732173680195
H           1.58257545588427    1.73686501613859    0.46720630950764
H           0.57372338225747    0.89750709924079    1.44764686466635
O          -1.99586369990448   -0.97245321577315    0.89345888925733
H          -1.45430775316590   -1.79489017772881    0.98713360850424
H          -1.34504339033303    0.20105775281470    1.62432453471715
H          -1.79783336863236   -0.68360759513567   -0.01592003861585
O          -1.11390499660717    2.39515829292626   -0.47629335611907
H           0.43343868752924    2.90680776780904   -0.53279851339491
H          -1.05748410356106    1.53954675870036   -0.94540664225610
H          -1.34557422790407    2.16392886173464    0.43153303953707
N          -0.24808586143421   -2.99140989354936    0.65425096860008
H          -0.21733413660402   -2.89810512394380   -0.36011908552592
H          -0.40828176050829   -3.96889404140730    0.86753333324190
H           0.68031275477816   -2.75211865658580    0.98195147627902
