    26
        -50.44849470  Gyration_radius:  2.4857579999 Dipole_moment: 4.259
 S          -1.54551615374628    0.70835043446453   -0.99162263630834
O          -1.79492206662963    1.99864679191313   -1.56602629386289
O          -0.52427485890729   -0.04985475463277   -1.73849661618462
O          -1.25180761824816    0.69526131272771    0.42736357317213
O          -2.89151443966279   -0.12369073953061   -1.15688102143842
H          -3.32081949115150    0.32190788275237   -1.87990584002890
O           1.91229505063411   -0.50545837075481    1.38900476668747
H           2.86957993155454   -0.49132224013839    1.42390315902023
O          -0.78471106647394   -3.18238791653066    0.71149399326896
H          -0.47129735442488   -3.95843191103935    1.17874718446061
O           1.06742760656874    1.87182737225608    1.04158280754393
H           0.12280652544689    1.63546283235322    1.00415934245829
H           1.61725416097355    0.46700771224326    1.28665365005468
H           1.25679078771830    2.17279047071789    0.11856403132409
O           0.84378729614893   -1.72255273741352   -0.59223508967194
H           0.18704184488729   -2.38229694585389   -0.16367071586586
H           0.22869600405811   -0.98515273066000   -1.11625207637433
H           1.29829912283243   -1.22990995431098    0.18275275920074
O          -0.76455101357693   -1.13100088906395    2.31155325969033
H          -1.11563075324597   -0.44007830611088    1.71604800809817
H          -0.93090919550846   -2.47066223136454    1.39629828403841
H           0.17203530286674   -0.91993614337331    2.40929598275936
N           1.05569735165422    2.41205333505491   -1.58459988428990
H           1.32516616655805    1.61777339687320   -2.15299897711247
H           1.40155026998378    3.24873144618829   -2.03956123831462
H           0.03752659969870    2.44292290323924   -1.61517041233149
