    26
        -50.44849467  Gyration_radius:  2.48590080927 Dipole_moment: 4.264
 S           1.14091110028400   -1.09709463815467   -1.17086767817529
O           1.75320865028607   -0.46882922360328    0.01480090581066
O           1.36998594287521   -2.51210458404671   -1.21730809184629
O          -0.23831930423390   -0.67625902989861   -1.31440522008533
O           1.90892805846946   -0.47745461930715   -2.41885645027013
H           2.56465474831015   -1.14124261533302   -2.60600264640678
O          -1.66836436958111    1.04334756166368    1.40304988918594
H          -1.97420210907269    1.13278595087229    2.30652391127484
O           0.47705712927136    3.16593357599360   -1.00360707569228
H           0.18084155141634    4.06526826388717   -0.85438204795847
O           0.79469398822745    1.57466969349893    0.95811617605168
H           1.23752726071139    0.66819942099676    0.53667339493635
H           0.77574329048789    2.25884109831194    0.19509170071326
H          -0.18413655384343    1.35469117266006    1.16713096559683
O          -1.57706943228055    1.62901629114176   -1.43501728870967
H          -0.31108957677944    2.65246063431447   -1.33848417750094
H          -1.13013674059159    0.77242827832107   -1.58287830217038
H          -1.99236760699815    1.54427130599200   -0.56805589532397
O          -1.78801114013253   -1.41101542711730    0.73471013248124
H          -1.76799079262693    0.05481578298402    1.16579976661861
H          -1.42069805734847   -1.28760739237136   -0.15941454901414
H          -1.08090237536804   -1.92738557101261    1.19499764237066
N           0.46789310431195   -2.63147976800497    1.51533216142419
H           0.77386304725782   -2.77016147622314    0.55319963223127
H           0.54902154167757   -3.52069971741539    1.99421890632505
H           1.13895864526904   -1.99539496815021    1.92963422813159
