    26
        -50.44849479  Gyration_radius:  2.48579687858 Dipole_moment: 4.260
 S          -0.55320083206827    1.75144794687071    0.70840613056278
O          -0.45340796786484    3.07205859910929    0.15786523296086
O          -1.56054997055903    0.92867718334225    0.01297012982764
O           0.69453016384804    1.02580952597504    0.83767593247766
O          -1.10253353118399    1.92431017873313    2.19149624310265
H          -1.53182743313804    2.77278128782443    2.15374833786460
O           1.00453987524380   -1.95316299551904   -1.00840507068072
H           1.05067667969173   -2.47292377710661   -1.81184719547759
O          -0.88095969650145   -2.22761576595410    2.34790547579961
H          -0.83177871214859   -3.15825269151250    2.57209968412188
O           1.81002361417182    0.40984311453485   -1.51085066827062
H           1.65737308936697    0.75821232260828   -0.61366395691426
H           1.36969844545906   -1.02930521328937   -1.24611825252654
H           1.13904137812091    0.89377848725241   -2.05308054985871
O           1.49722493809546   -1.33783258736135    1.78180865705052
H           1.29514007051034   -0.39985823826738    1.59568769484999
H           0.05708525816939   -1.88711853828062    2.31429591873481
H           1.69213542517026   -1.72398804764841    0.91914677483886
O          -1.32634671629230   -1.50546243064416   -0.05244092106911
H          -0.40625666213519   -1.68793066834371   -0.46503786518010
H          -1.26601561659259   -1.81169312370398    0.92381647358114
H          -1.44605719715519   -0.41905317449011   -0.01855740308981
N          -0.25248822611145    1.84792665627469   -2.44161377822011
H          -0.25670502997259    2.46263779054328   -3.24705238805980
H          -0.27368532807188    2.43273564563533   -1.60725567438936
H          -1.12565601805706    1.33397850341470   -2.44099896203763
