    26
        -50.44849481  Gyration_radius:  2.48582014296 Dipole_moment: 4.257
 S           0.50692827788413   -1.70741185205054   -0.83878436775518
O           0.54897174483602   -2.11302807776468   -2.21383369481880
O           1.57651372449578   -0.74862575334689   -0.50398438072579
O          -0.77423331502825   -1.22672400067896   -0.36165564376037
O           0.82302923043569   -3.00758012911021    0.02195593020426
H           1.28623545051069   -3.55826331760068   -0.60070628755051
O          -0.91300103935330    2.10865584403469    0.74851374032062
H          -0.85353139737767    3.05907098424951    0.64376675930180
O           0.40833051032525   -0.47222835578376    3.29572177394409
H           0.28630735596246   -0.04885290795733    4.14698019238250
O           1.25503321829218    0.86801752747745    1.30356230410486
H           1.02938048788661    0.31924571669263    2.13924907200076
H           1.41273181405295    0.14134372847070    0.50171089167254
H           0.40454869411550    1.38833053559450    1.06693560470192
O          -1.81265415937833   -0.37459752290830    1.94450212141664
H          -0.49797450227030   -0.57256415658577    2.88886584602480
H          -1.88515374371204    0.55076308740756    1.68040258373693
H          -1.54522416862567   -0.84623943949596    1.13129990442857
O          -1.53190369377113    1.07194839639108   -1.49366561714636
H          -1.19813646340984    1.73979329214380   -0.16031811432320
H          -0.76473079904857    1.11692134220043   -2.11642532683071
H          -1.50765658189293    0.14815583975042   -1.18442450945490
N           0.70897442980361    0.67683853085292   -2.91172418327222
H           1.54914086716126    0.91856877838218   -2.39961531498187
H           0.86534539079203    0.90466839467525   -3.88653961574151
H           0.62272866731505   -0.33620650503563   -2.84178967788075
