    26
        -50.45379116  Gyration_radius:  2.52435130911 Dipole_moment: 3.724
 S           0.74268867521124   -1.20002856848717    0.05570546734003
O          -0.65644286063276   -1.17761784924101   -0.45759375409724
O           1.62628039609578   -0.56347309597352   -0.90791416944681
O           0.81952192213743   -0.60571304053207    1.36954903557941
O           1.11207574897093   -2.69630468432670    0.17501564224791
H           1.08848098586068   -2.99944235581529   -0.78049081125844
O           0.06447496097762    2.70184893565251    0.29627332800507
H           0.19309222079331    3.54279675886230   -0.14542948446060
O          -3.13950638528669    0.63715354812687    1.18254096280219
H          -3.28714194430637   -0.30966660191344    1.23032704224789
O           2.36217761940383    1.51883608275963    0.50850865060540
H           2.30332773661691    1.06427404826033    1.35583647181302
H           2.23526877968943    0.79656475757062   -0.14579230440682
H           0.97451268888855    2.28292876377051    0.37161600485041
O          -1.60578960708979    1.03569168574206   -0.80611082042393
H          -2.34785318199019    0.95893619228940   -0.09795263259100
H          -0.94579061698616    1.69938494357540   -0.43260542676355
H          -1.12469593943581   -0.00372549165876   -0.71228716603186
O          -0.91187679807633    1.11854524354022    2.46663986672743
H          -0.29719919671484    0.40743043716530    2.19536567505462
H          -0.58542807047256    1.91510507115584    2.03068682782474
H          -2.40005173601837    0.83317402433655    1.82092193217666
N           0.97004191267830   -2.86091475246457   -2.41150315829863
H          -0.00291379368341   -2.80722770431348   -2.68314373056747
H           1.47885263532543   -3.37575426453116   -3.11835109515746
H           1.33389385801072   -1.91280212362504   -2.35981236380935
