    26
        -50.45379122  Gyration_radius:  2.52454864344 Dipole_moment: 3.725
 S           0.04131194559162   -0.82367660426745   -1.14607380288742
O          -1.16513004330039   -1.43375262678937   -0.61063503749317
O          -0.15079859580720    0.65029756272995   -1.25798218065377
O           1.22066443971210   -1.13271213326522   -0.37230110286896
O           0.26383076817449   -1.31924827479978   -2.59321439292357
H          -0.61749682609576   -1.11674386189340   -3.02667714550336
O           1.75471590943030    2.85613840365815    0.65356673877708
H           1.95241846409301    2.91919977419370   -0.28318836996184
O          -0.06705346346289    0.07404681633132    2.71737174985987
H          -0.62852084608654    0.10472827177804    3.49368463061270
O           2.44626487479185    0.44876169475952    1.40874916364823
H           2.18493663033870    2.01493367660944    0.96970451923302
H           1.85237481635613    0.28202148636126    2.15078001474607
H           2.13811331598812   -0.14518223722752    0.69508795733334
O          -0.21871872634354   -2.29754706811997    1.67920898020417
H           0.67112685093130   -2.45386483635655    1.34489545140091
H          -0.14178693790589   -0.85963747281209    2.35428865674497
H          -0.73256652859917   -2.08830954285514    0.86802820618648
O          -0.55683851667888    1.81247536043044    0.84085059873439
H          -0.44107466057048    1.24667369798100   -0.15377381847085
H          -0.42394015392437    1.13931780518502    1.57874028296246
H           0.30088975278974    2.37979781385023    0.82993298280117
N          -2.18658978888002   -0.64673195684640   -3.12206413380230
H          -2.91645510731193   -1.03281677473102   -3.70670202221598
H          -2.24352525874270    0.36279526853797   -3.15199205105918
H          -2.33615232448837   -0.94096423244469   -2.16028585540440
