    26
        -50.45379114  Gyration_radius:  2.52442878506 Dipole_moment: 3.723
 S          -1.12618238847218    0.36697152711673   -0.76886522632295
O          -0.16116683535529    0.81142133203349   -1.76169094603661
O          -0.86008899293330   -1.05608792464506   -0.41462288713540
O          -1.14338031621118    1.19781060290906    0.41213334624542
O          -2.54050872545050    0.37716021223990   -1.39268954379442
H          -2.41170795377325   -0.16858802884450   -2.22392578607025
O           2.32259643448903    0.84392807245734    1.13422151618442
H           3.26856062048044    0.94504967118617    1.01676974549526
O           0.14268257415284   -1.94501220107000    2.80316199302903
H          -0.73257402115806   -2.27465766992339    2.58915907727655
O           1.31223093472111   -1.49371179312431    0.59091232100758
H           0.95875066736137   -1.80466099637156    1.50548740756676
H           0.32107569877387   -1.29152723913282    0.04613178000277
H           1.74244277237365   -0.59811697253872    0.75965592644213
O          -0.00843644292141    0.66636675313260    2.77927020627750
H           0.03582275331718   -0.96882446953563    2.97171621308592
H           0.89077410152798    0.92749672244397    2.54617320949100
H          -0.55099811172876    0.88736768973027    1.99574319249385
O           1.11347755103047    2.60629770904592   -0.33413470906186
H           0.73748228031520    2.01500115499014   -1.02326991707500
H           0.34516993340009    2.84933755349047    0.19379222263331
H           1.89237574052738    1.54976606374267    0.56322775412381
N          -1.59567905566146   -1.00888997104388   -3.37354010945561
H          -0.76561976296064   -0.44859435428766   -3.19729434164617
H          -1.77490655292474   -1.03616955068591   -4.36888490338081
H          -1.41219289292732   -1.94913386331734   -3.04863754137973
