    26
        -50.45379095  Gyration_radius:  2.52423848414 Dipole_moment: 3.725
 S           0.19093011913004   -0.80866092484774   -1.14154488098561
O          -0.26481931746760   -1.39198560287632    0.15176649967541
O          -0.88512384225830   -0.02803386739713   -1.73088706320825
O           1.40668406399506   -0.04953966416534   -0.96499153216086
O           0.49990067453168   -2.01913184138838   -2.05206655660868
H          -0.40325918099209   -2.44067073172401   -2.16152184041958
O          -0.08300455731203    2.53596904884611    0.97387287742280
H          -0.64266906911172    3.28979980812664    1.16717765991636
O           1.20800336913312   -0.43751605555420    3.16415575039127
H           1.39187795089395   -1.35238377605357    2.94107734525796
O           2.32358705462544    1.02933665334164    1.30818927315827
H           1.78332349703893    0.11302636572919    2.56512684947362
H           2.12826363703749    0.57280147595045    0.46518059617967
H           1.76950193154099    1.81930260748666    1.30249400200384
O          -0.87619693502690    0.22267540649947    1.86686382895629
H          -0.62488570839571    1.13309099269041    1.51462536777524
H          -0.66028672185851   -0.53127762597979    1.02884297685943
H          -0.13435293041094   -0.02732180257572    2.53467358766262
O           0.20226061598990    2.35538535612017   -1.59686318983111
H          -0.34102585902902    1.55371677899118   -1.76481009723134
H           0.01463550551253    2.50848261359420   -0.02570934955008
H           1.10565989391931    2.03768677987946   -1.70154476041460
N          -2.03214118381347   -2.59015939478121   -2.02668595163883
H          -2.68061407093324   -2.96625965701263   -2.70610313643860
H          -2.12472353722077   -1.57792438796075   -1.99906806025291
H          -2.27152540951528   -2.95040856494006   -1.11225018599639
