    26
        -50.45379116  Gyration_radius:  2.52443800586 Dipole_moment: 3.723
 S           0.90181004948343   -0.38093004555857    1.01741600886012
O           1.83324734583921   -0.64934588069240   -0.06651628511397
O           0.40017152985980    1.01859789619454    0.91078957265264
O          -0.19453925964167   -1.31958023102055    1.06415601698274
O           1.65622820062146   -0.44481088771382    2.36511772286545
H           2.42026205387987    0.18646853563796    2.21283315982185
O          -2.96391457908681    1.67281790452703    0.27732268466930
H          -2.69610400013944    1.94925364729568    1.15621692320307
O          -1.27212193454112   -0.75896306703548   -2.28006898509241
H          -1.23696521450175   -0.77189255811844   -3.23790081186894
O          -2.69669392025819   -0.92803005916312    0.19234677475792
H          -3.03531697983669    0.67959091108732    0.31102430121278
H          -2.52838462612245   -1.09206268567149   -0.74353683665074
H          -1.84867312729399   -1.11603215268448    0.64241169747500
O           0.45419159866449   -2.46439088568508   -1.36580038621429
H           0.02555506379178   -2.81841631457899   -0.57906019976171
H          -0.60285830749002   -1.43913981070002   -1.96591422273748
H           1.12120230114069   -1.84198585789627   -1.00030004678173
O          -0.84254048313837    1.53127936831039   -1.11751824903611
H          -1.74297162020710    1.72364969997581   -0.65895878206789
H          -0.18975656796015    1.30297701894001   -0.19947251011684
H          -0.97204513882915    0.66116929464875   -1.60918053189612
N           3.40878248638929    1.19534545037482    1.37739067363153
H           3.20365618656821    0.68978309199561    0.51930608814929
H           4.41052277134075    1.30239231968728    1.47029249392003
H           2.98725615147228    2.11225529784781    1.30760372913741
