    26
        -50.45379099  Gyration_radius:  2.52431440651 Dipole_moment: 3.725
 S          -0.75557875157100   -0.62092825614606   -1.01837794064145
O           0.73189966175147   -0.55999209936443   -1.08642555735954
O          -1.15872772584898   -1.56243575524128    0.01391950572099
O          -1.31762898599982    0.69607284021118   -0.83087796659643
O          -1.20845233328137   -1.15232638158740   -2.39756834869277
H          -0.82411224460573   -2.07837472991736   -2.40681126661334
O           2.44106782302011    2.37078543874786   -0.28506090684247
H           2.51481675839600    2.14716854601880   -1.21517771085947
O          -0.05484654185690    1.14116090127310    2.46653359476749
H           0.03892314136107    0.99062867609354    3.40854705920325
O           1.83921640123620    0.22274640718695    0.93434920017409
H           2.23588273456230    1.08042606483506    0.52717754171109
H           1.11529027759701    0.53353556004063    1.56308048264200
H           1.31516518727326   -0.21810171799173    0.01292763381316
O          -2.30044852385172    0.10811959773825    1.68346329627394
H          -1.95812982600431   -0.65939183131336    1.17381737958854
H          -0.93861224710889    0.74089907145208    2.20549694664126
H          -2.60004174861431    0.71459279926063    0.99754391587389
O          -0.08814163718101    2.85162554696754    0.17603171861918
H          -0.57593861810379    2.15566015330418   -0.30865056885771
H          -0.17992033025570    2.62217535831908    1.10879940132421
H           1.51910422874991    2.72744698769270   -0.15970892048543
N          -0.06729923912036   -3.41087799233068   -1.81893164172242
H          -0.37874141515074   -3.17588479642424   -0.87989838548976
H           0.93550756200516   -3.28304137228642   -1.85610960933377
H          -0.28025362734616   -4.38168899649750   -2.00808886291635
