    26
        -50.46212482  Gyration_radius:  2.51233570253 Dipole_moment: 6.142
 S          -1.27480720778581    0.14245238042683   -0.09851846392872
O          -0.59594800008994   -1.14284024720690   -0.29393536389106
O          -2.57063510441560   -0.11539931823798    0.70419816105224
O          -0.42194870160369    1.01137525666674    0.74149034565731
O          -1.62488211263888    0.78555439356382   -1.33454680881939
O          -0.83453611957348   -3.19208690241416    1.32232376705053
H          -0.79826494327469   -2.49822210735250    0.62371086271496
H           0.02284210516552   -3.62039438313849    1.31356868601688
O           0.66904576142494    2.94778755775744   -0.75745206294318
H           0.08532670374783    3.65718461268914   -1.03031546174845
H           0.11377943054712    2.33802532411145   -0.22746506646128
O           1.67950835924666   -0.91013350795837   -1.58983598025600
H           2.08231795613986   -0.01486069524427   -0.49914583028687
H           0.82791566105064   -1.20648742453594   -1.19578794115518
O           0.55707939618656    1.10259306077052   -2.84299229886618
H           0.81942158811661    1.89114615393034   -2.34339079249537
H           1.38982485941902   -0.25252718226495   -2.27327282133888
H          -0.34375634649320    0.91559128810738   -2.51187509418049
O          -1.78838196967495   -1.28916970439013    2.90681350999455
H          -2.25220305167480   -0.47798693224772    1.56916820165176
H          -2.59029975457615   -1.59813108230882    3.33412508453763
H          -1.39719015886424   -2.07362235318087    2.45742154740895
N           2.10564043035194    0.72190017727457    0.32820925116514
H           2.72814833482826    0.45965500794560    1.08385549830209
H           1.08135256111701    0.77154311221426    0.64978509254330
H           2.33065034332607    1.64705348501566   -0.03613600172302
