    26
        -50.45379096  Gyration_radius:  2.5242848365 Dipole_moment: 3.724
 S          -0.13464579686926   -1.40388656894705    0.06545531314960
O          -0.76166759796650   -1.16708532109302    1.35595250829175
O          -0.83304235159262   -0.60839077952760   -0.98337970064844
O           1.28206666216161   -1.12379828177300    0.06728128107587
O          -0.33863887328717   -2.88263047863395   -0.33632653013685
H          -1.33152840294871   -2.99272702269312   -0.25048848624647
O           0.81436676335051    1.95362838400091   -2.68025475224006
H           0.60116311787789    1.21423984443511   -3.25332777857956
O           0.96721611981150    2.22789585758190    1.21942732243431
H           0.77305189277221    2.94234728636348    1.82826976767271
O           1.22647649146790    0.03329358498885    2.57558463197586
H           1.07400364959367    1.40199287805431    1.78151834100337
H           0.40065021309151   -0.42477961665041    2.30317448035689
H           1.91367506569524   -0.44561940955537    2.09972755671569
O          -0.75564716263881    1.80575953081849   -0.68621980322422
H          -0.13267909472801    1.98581133328773    0.08549229897614
H          -0.20937381910199    2.01202994842542   -1.53347318332336
H          -0.85369492242859    0.66595125256332   -0.77779154734397
O           2.50052106025881    1.05967273227212   -0.89183566048847
H           1.58611839338708    1.65739408891737   -2.12385429773297
H           2.33267122054515    1.63667954392532   -0.13684384124597
H           2.15590564486308    0.18323749676817   -0.62656546511809
N          -2.87440624588916   -2.58224748238631    0.13067296128277
H          -2.53144257429230   -1.96309787129920    0.86075010886850
H          -3.60042837430420   -3.17591642428115    0.51021579817092
H          -3.27069106881584   -2.00975449556114   -0.60316133365822
