    26
        -50.45301681  Gyration_radius:  2.45755621666 Dipole_moment: 2.640
 S           0.11214295930990   -1.30923534773349   -0.68097080452178
O           0.74090783999432   -0.01464802065984   -0.40998660285086
O           0.31763167460664   -2.22911251455259    0.42016073883114
O          -1.30192418360103   -1.12426493206902   -1.00904934496353
O           0.77946391420197   -1.88436392085319   -1.96169376217261
H           1.71320555684135   -2.06311477640570   -1.66602836676603
O           0.10351590076954    2.23205738291593   -1.60196196094544
H           0.53316152192475    1.36868546145540   -1.40515595549471
O          -2.34585440179492    1.28907427596578    1.38622726136473
H          -3.22309456322328    1.14861578152903    1.74667300282052
O          -0.77718363833443   -0.64567182281712    2.19603723278968
H           0.00881389440417   -0.27898775066494    2.60854485706582
H          -1.80033551528786    0.50759264729374    1.67418569963478
H          -0.45396680678890   -1.32235021189310    1.55895308796200
O          -2.13901841119690    1.18119265543273   -1.18411891881813
H          -1.82322977323306    0.15578316447280   -1.20687893872199
H          -2.29530473531322    1.32868215898901   -0.19408466122037
H          -1.26824051199209    1.71854012151997   -1.44266089513596
O           0.38086524787028    2.26639770207714    1.11167622326879
H           0.61100510085055    1.38914584292413    0.76237206781407
H           0.27881473690915    2.74894072274970   -0.79498107126133
H          -0.51807244914084    2.19742020319118    1.44863102901956
N           2.97593198682383   -2.17041781188856   -0.57640979934823
H           3.73471214174930   -2.83945993442632   -0.55339402116698
H           2.30742069256750   -2.39994523061292    0.15406133243826
H           3.34863183108076   -1.25055586593382   -0.38014741963024
