    26
        -50.45301659  Gyration_radius:  2.45728209393 Dipole_moment: 2.640
 S           0.04051949663429   -0.60040732768172   -1.35338971883648
O          -0.94132410171177   -1.66289977932008   -1.26353359239613
O          -0.35339400970398    0.55068412104971   -0.53816296784253
O           1.38743310999342   -1.04026249781592   -0.98734730586624
O           0.13305371440858   -0.11032672408294   -2.82565654292121
H          -0.81313428431743    0.10466950963824   -3.04906431906979
O           1.28871321106178    2.40760380438105    0.31639615870170
H           0.66173735605532    1.90549508108745   -0.25232002423752
O           1.31974881325506   -0.87225660261182    2.56501185816550
H           1.77934828577583   -1.58429895472640    3.01325764433916
O           2.61433587260991    0.30307379106337    0.66680647255653
H           2.17116843827991   -0.27829048691142   -0.11922580354906
H           2.18110217914449    1.25791265085521    0.54861115842517
H           2.19764195297018   -0.11120304079449    1.49215195146095
O          -0.77933317097809   -1.85287003428213    1.34364362593894
H          -0.80437470737359   -1.90019392819459    0.36113733859627
H           0.56436912421332   -1.29616786867053    2.07428515218376
H          -1.56530811166629   -1.36504695451145    1.60175209425119
O          -0.48763007494983    1.36040535120058    2.10281470044312
H          -0.64440106184821    0.99021240441651    1.21799325044776
H           0.01747937129305    0.70019299203344    2.58794159323319
H           0.78873108272912    2.51549192909205    1.14552263338797
N          -2.46194975665551    0.18709979905681   -2.79012713151404
H          -2.68158244557340    0.96559061941686   -2.18239931573715
H          -2.39996127721188   -0.65004184853967   -2.21696698994393
H          -3.21298898642531    0.07583398485514   -3.45913191022105
