    26
        -50.45301692  Gyration_radius:  2.45765950786 Dipole_moment: 2.639
 S          -0.95409198491669    0.84261809880991    0.75394402041481
O          -0.76404611438166   -0.35882227939019   -0.06162170759817
O          -0.57806036694902    0.60118547843288    2.13285977214675
O          -0.23923602636420    1.97336329801952    0.16082489180471
O          -2.46398616806407    1.20672068140841    0.68985345951264
H          -2.89726412555046    0.45009904620484    1.17052088284277
O           2.86197478459157    0.51629220338253   -0.79339180726532
H           3.62992389032417    1.07311772146403   -0.65420074361132
O          -0.52984856016577   -0.36671970464216   -2.67283733520842
H          -0.92246442547497   -0.38054174418610   -1.77036857343956
O           0.86517453446827    1.61257015112779   -2.00638526786323
H           0.29405263797576    0.82891489798576   -2.42293987002490
H           0.33787353419535    1.86259998251225   -1.10573987723767
H           1.71494633171333    1.19860037092258   -1.64179719107280
O           1.86102529787100   -0.14259535615282    1.53536937025042
H           0.99685487418919    0.22681795977001    1.82676356342255
H           1.77064715269468   -1.09685909812416    1.59539602425610
H           2.48535547573838    0.33429865234015    0.11006029977871
O           1.24158938775301   -1.86061279046119   -1.23229236852350
H           0.09189380021012   -1.11626966151353   -2.64911649577459
H           2.02855384334718   -1.31010355236635   -1.16970216990331
H           0.58050586903493   -1.46237731989625   -0.64161272436467
N          -2.95058270993711   -0.95774997206824    2.06965286523559
H          -2.07584261007857   -0.69036983020907    2.51300821578827
H          -2.76903399736200   -1.75950769219589    1.47993847472028
H          -3.61591432477598   -1.22466955115074    2.78381429170831
