    26
        -50.45301674  Gyration_radius:  2.45747876528 Dipole_moment: 2.639
 S          -0.25695624304678   -1.14491883387659   -0.90255896414116
O          -0.83562825979813   -0.13818898363308   -0.01007986438007
O           0.00807893375479   -0.58795206743318   -2.21427122611381
O           0.93063495722298   -1.74006628444628   -0.28859109939831
O          -1.29567710477809   -2.29403801072048   -1.03307791815764
H          -2.04796556557589   -1.86074780798210   -1.52041936173829
O           2.59102970318282    1.08590602612269    1.09240247181048
H           3.54657276148634    1.07164775474414    1.01580699320265
O          -0.82227760650628   -0.28146765114645    2.60784698029101
H          -1.09238742230601   -0.39243421335955    1.66789909082291
O           1.55221568339009    1.32026313437996   -1.30060333471627
H           2.23958813371400    1.12245653794211    0.16167198856462
H           1.07060064485752    0.56563534843096   -1.70892807792155
H           0.94174418809686    2.06139363114303   -1.32103884271142
O           1.48874935528569   -1.06072746904522    2.00776283841880
H           1.25722396686309   -1.46359892248762    1.04030204329252
H           1.97740950496588   -0.20684238627255    1.76590236557007
H           0.54819711480260   -0.77911954905757    2.39467647381689
O          -0.11474868933307    2.09043002762128    1.46049399011187
H          -0.39308833554572    1.45757954253261    0.77744039927425
H          -0.73356170614539    0.68486393283174    2.69399347284023
H           0.84768557666695    2.08296199109912    1.46190958989863
N          -2.82842745868953   -0.63332319231010   -2.34372328207012
H          -3.48188454990436   -0.70413978284354   -3.11308253812004
H          -1.92932743453042   -0.31883176512296   -2.69852877971899
H          -3.16780012811896    0.06325899288188   -1.69320540870683
