    26
        -50.45567463  Gyration_radius:  2.46077148351 Dipole_moment: 5.091
 S           1.36411743113120   -1.13406521778845    0.80230514444716
O           0.32610658139748   -0.16419809910378    1.05181202115829
O           1.50207510899063   -1.32689932507325   -0.72102140132598
O           2.63538773788557   -0.80745000243813    1.37210379220213
O           0.90244551663456   -2.50690874322330    1.29951405773034
H          -0.01070302764896   -2.65360135465301    0.81202546574647
O           0.71272460908421    2.54441772749611   -0.73932399744016
H           1.20244530312259    3.16100184175468   -1.28615047921391
O          -2.48010881369217   -0.09300979722266   -0.75504863130009
H          -3.28537553304172    0.21394616179450   -1.17419782499300
O          -1.49547881110266    1.76369003730911    0.82568253164352
H          -0.87031681452016    1.10124093583259    1.16712285298339
H          -0.94595079585318    2.32610085240062    0.26250670009762
H          -2.21947414847736    0.60992037924579   -0.09983483570876
O           2.42879945524430    1.85555003966954    1.17413936459563
H           2.02599746215289    2.05563822687443    2.02211742486027
H           2.63703048750653    0.90116119281705    1.20972037342441
H           1.34031359626296    2.25336404015367   -0.03170908235081
O          -0.04724303619635    0.24146630706877   -1.93765533366717
H           0.87665977168575   -0.69794673821547   -1.25184136810837
H          -0.94009755785715    0.05879866474096   -1.58154707989245
H           0.21800059991195    1.10505455029630   -1.55405630740160
N          -1.26024623070025   -2.70005994293921   -0.05310501174195
H          -1.68215707480163   -1.77557712338585   -0.11656329960438
H          -1.95672164203816   -3.35044027619643    0.28666169890404
H          -0.97823016507834   -2.98119432721278   -0.98365678504389
