    26
        -50.45567458  Gyration_radius:  2.4606956413 Dipole_moment: 5.090
 S          -0.57741158447351   -1.20295610955002    1.41840297690321
O          -0.99933628335581   -0.24046011272954    0.43054003766858
O           0.96156715741723   -1.29182713491308    1.39340718946687
O          -1.03076086546134   -0.93104206084849    2.74807412834023
O          -1.02710175860099   -2.60116799524999    0.98523597379001
H          -0.62923194322355   -2.70300479050777    0.02370198341688
O           0.63962730770594    2.58011127114693    0.67889860189975
H           1.19208429221515    3.22778822973187    1.11976113467337
O           0.49162025589912   -0.01115249826551   -2.54733600528540
H           0.80291859285521    0.33452319524753   -3.38518684962087
O          -1.03057350151476    1.74157111792809    2.57318679313336
H          -1.92807003313583    1.88942609263765    2.26656483193176
H          -0.98128851817148    0.78443860238021    2.76543432090979
H           0.02383452043297    2.23385972492220    1.37180559724286
O           1.90053894958537    0.37261027476070   -0.24630615625347
H           1.49151608040819    1.20513677912783    0.07423643332821
H           1.38016642084833   -0.62138818699389    0.72713216915723
H           1.46418028482881    0.17717867254872   -1.10007400537469
O          -1.09600733541931    1.72101413315152   -1.36643256623702
H          -0.51616022059451    2.31338377777317   -0.86806883161263
H          -0.17786609553806    0.64193909448639   -2.20593480952459
H          -1.32452112440189    1.02909957706451   -0.72199124351298
N           0.10183153353759   -2.67447122728615   -1.30899038655661
H          -0.26147116386912   -3.34046766373653   -1.97836024171189
H           1.07418471298935   -2.89063977120346   -1.12903338363772
H           0.05573029909693   -1.74350299158683   -1.71866770262487
