    26
        -50.45567462  Gyration_radius:  2.46072012969 Dipole_moment: 5.089
 S          -0.08750325583058   -0.27029055297010    1.92636416241163
O          -0.83407802433760    0.05630640244260    0.73629634858061
O           1.39999266881522   -0.41875512658892    1.54923278534864
O          -0.23021868209237    0.66863419932948    2.99667810343550
O          -0.48145893915137   -1.67198521841635    2.40068849282839
H          -0.32060275066773   -2.27269871414137    1.56023304567313
O           0.51280115527497    2.53185716348993   -0.92394234315427
H           1.08550349241688    3.29240790523784   -1.03632838647126
O          -0.14161829316615   -1.34885181361636   -2.21171129915854
H          -0.08059420949709   -1.50017145228652   -3.15603997120768
O          -0.55143918418712    2.86136575046833    1.49259017787117
H          -1.50688954218730    2.86288669185929    1.40057927229300
H          -0.35740837477007    2.14133599245429    2.12457229973397
H           0.12277264669774    2.61880743447077   -0.01863907097840
O          -1.56714652152100    0.80347363545865   -1.71119264834702
H          -0.94886115015583    1.54592841896596   -1.75556769217008
H          -0.77254333709946   -0.58833448565158   -2.08969404147605
H          -1.55941945088203    0.55524991664535   -0.77067747436041
O           1.73485369819038    0.11860272942353   -0.88784485173216
H           1.33096074102519    1.01142339302395   -0.94197855683679
H           1.57248641098100   -0.20679412348856    0.55224608046170
H           1.12763818989246   -0.47451471555865   -1.37466328470393
N           0.05819022087899   -2.96744293186216    0.26195487735119
H           1.06213096801969   -3.09649090130839    0.26609549490011
H          -0.18185491876117   -2.38266298509830   -0.53622273140377
H          -0.38569356787594   -3.86928664226162    0.14697122112418
