    26
        -50.45567459  Gyration_radius:  2.46071656804 Dipole_moment: 5.088
 S           1.84117853808704   -0.60974839890701   -0.17389626786119
O           0.63141909085603   -0.68812929201723    0.60754395397730
O           1.62696744317703    0.40769443942348   -1.31227224751898
O           3.01309871120192   -0.26934555038865    0.57325960909013
O           2.05357785566688   -1.93569795850650   -0.90981185353793
H           1.15913265338372   -2.07509502431142   -1.43298524103989
O          -0.47318009174658    2.26824639688167    1.46906903694084
H          -0.40311090711609    3.21330359830831    1.61399136129468
O          -2.38720123646377   -0.60642699413395   -0.81543113110507
H          -3.32926661262612   -0.48820557150307   -0.94544601645969
O           1.82065365800597    1.28873251751109    2.39631955756011
H           0.38185497798331    1.88250093227775    1.78425342760271
H           1.61623701617213    0.63431911962296    3.06810063699715
H           2.35846710669773    0.81345368643916    1.73272264373592
O          -1.74901114213008   -0.23151121290996    1.70794983138930
H          -1.60931233787125    0.72048780311331    1.80634122631450
H          -2.23080677767613   -0.55340359921073    0.16642898980653
H          -0.86119250971998   -0.57312138209589    1.50459035974033
O          -0.64697386288015    1.47006695181478   -1.10996081761711
H          -0.61700670395591    1.80715702016341   -0.18872436290156
H           0.69978342179663    0.86189066813147   -1.25992085366150
H          -1.28479493059195    0.72806247001642   -1.09764589580546
N          -0.17260482477327   -2.03910930779245   -2.16554435785591
H          -0.89878106767889   -1.65780018135845   -1.56225853236186
H          -0.47129227977925   -2.94734784554538   -2.49644577603551
H          -0.06783516802084   -1.42097330503341   -2.96022732068467
