    26
        -50.44772979  Gyration_radius:  2.51298543504 Dipole_moment: 2.774
 S          -0.20795022507614    1.58497269849128    1.38203962617799
O          -0.79573000581868    2.45718862202198    0.39327637720338
O          -1.22466026504226    0.75058265000421    2.04600091629402
O           0.89836408427629    0.79619213767263    0.88883707972504
O           0.37021146009822    2.51060105023888    2.52618155188730
H          -0.39402037834500    3.03921015208479    2.72932712242906
O          -1.13600145388496   -1.05722765865152   -1.50592230554581
H          -1.77251382955537   -1.31288448987754   -2.17534985346386
O          -0.19702927023593   -3.00874856596029    1.59190480002201
H          -0.27599086848526   -3.91675129190968    1.29558067793782
O           1.24144243494754   -1.66588687069333   -0.11829545809938
H           0.49762730299943   -2.57594840062382    1.02032997911564
H           0.60849694410493   -1.56441823276834   -0.84269187957303
H           1.26696236418734   -0.78858350572289    0.30981707555154
O          -0.54693040445759    1.34791428685187   -2.00071404397748
H          -0.72789925250154    1.84987836353263   -1.17809376138149
H           0.43652920097207    1.36279058713344   -2.08106321577430
H          -0.90125193602511   -0.07386425818122   -1.71203525276087
O          -1.94915372805764   -1.28940706111529    0.90561825736137
H          -1.67047281974395   -1.16774717653450   -0.07345723612572
H          -1.32917899699739   -2.01537750844665    1.28147341676365
H          -1.66477020391766   -0.37464955795651    1.42701523025289
N           2.14087191962660    1.28832055239923   -1.68222517177777
H           2.70916568424127    0.48511162415828   -1.92118305334792
H           1.91898154655260    1.22100771778079   -0.68979568503776
H           2.70490070499708    2.11772415568276   -1.81657518289256
