    26
        -50.45567461  Gyration_radius:  2.46074545646 Dipole_moment: 5.088
 S           0.29811842194578    1.69556744701837    0.90977214023454
O           0.61806797980781    1.95485469096740   -0.57592503750211
O          -0.04835384283101    0.30470216818657    1.07039641881532
O           1.38418951114539    2.13844165708928    1.72939803553468
O          -0.94091174036664    2.55754200360440    1.16805591221479
H          -1.65550672774634    2.16791553064823    0.51182184374161
O           2.14333359348589   -1.68103301681777   -0.32719759226841
H           2.99390122808397   -1.90393321946391   -0.70915251861789
O          -1.88996457497829   -1.31883562857229   -1.19142380816169
H          -2.27781730244167   -2.02223713303228   -1.71406639561058
O           2.74404122693561   -0.16838651105747    1.77808785546187
H           2.35789811895901   -0.57419793665027    2.55753917991452
H           2.33953985978796   -1.09572113371224    0.44619450490651
H           2.37168681308833    0.73496953305921    1.74995460528437
O          -0.39123510646219   -2.31270182750741    0.72731584901229
H          -1.42470466601427   -1.75948273838002   -0.42941147590340
H           0.48069851434774   -2.45573419508130    0.33395838674202
H          -0.32862332182505   -1.41767280085721    1.10315158453840
O           0.49684599935564   -0.19694528521800   -1.87796481704483
H           1.11216557735182   -0.76359879450774   -1.36464271340205
H          -0.39658663125051   -0.55810862725737   -1.70805240664722
H           0.57500692715013    1.09015128315130   -1.14077771919308
N          -2.50562746200408    1.51078629288923   -0.56388716095871
H          -2.23934520424173    1.91446002676409   -1.45309470509974
H          -3.49866565565962    1.64844089849896   -0.42794983015432
H          -2.31815151563766    0.51075731624842   -0.60210013584280
