    26
        -50.45567416  Gyration_radius:  2.46102935737 Dipole_moment: 5.091
 S           1.54462277864979    0.88139865140018   -0.78888826169038
O           0.73430888172943    1.99807001601133   -0.10107454066114
O           0.83839323270711   -0.36602128649581   -0.62880659678873
O           1.82094457344423    1.24027760335946   -2.14634124369464
O           2.84586691761025    0.83195689590165    0.01702770437537
H           2.52949263675660    0.58639919304439    0.98262247842684
O          -0.73476687140041   -1.13051851580639    2.21421668203005
H          -1.33588506175143   -1.53314258217039    2.84258718465551
O          -2.30727939173852   -0.12859008826489   -1.48333951618574
H          -3.06281809302469    0.27748725088891   -1.91150418458485
O          -0.33820826450368    0.11027301763746   -3.25681782138101
H           0.42997630628026    0.62629817239576   -2.94189679828551
H           0.00707871524107   -0.76661478532457   -3.43878520081434
H          -1.55270633131796   -0.03014001346003   -2.11607040078549
O          -1.43779151289540    1.07645050527208    0.77705785355872
H          -1.18640462351279    0.34033378457286    1.37052396830621
H          -0.16607726627660    1.65302395844632    0.27209942097544
H          -1.80690568971709    0.65236387754836   -0.02746193447373
O          -0.99445214083178   -2.23772480058617   -0.15671805066545
H          -0.19492729733893   -1.75911346926812   -0.43596387237267
H          -0.81186582180906   -1.65897724983674    1.37388071879881
H          -1.71097426180071   -1.75876178328345   -0.59574383952946
N           1.85241532067119    0.31039887644011    2.31613944824905
H           1.05248937195044   -0.30629626258418    2.18750933289363
H           1.51337661845905    1.19403639486756    2.67491298374932
H           2.47209726441597   -0.10286736070449    3.00083446588328
