    26
        -50.45071942  Gyration_radius:  2.4546743023 Dipole_moment: 5.473
 S           1.69994126693714    0.47451967918103    0.85690596212231
O           1.24321208468905   -0.24132313485091    2.02563515346834
O           1.82519425545314   -0.42424116741205   -0.30108897594297
O           0.93600459038141    1.65509294370499    0.52706640308479
O           3.17255911163827    0.95908047404024    1.17773044238340
H           3.47323312693648    0.26207026352676    1.75044143548413
O          -1.21382919814850   -2.55189897974212    1.23684838055906
H          -0.57974160532782   -3.04695025501091    1.75957945155351
O          -1.49104153427102    0.10061367589207   -1.97980150143331
H          -1.92334515331604   -0.05440695960637   -2.82065363154859
O          -1.76866369004366    1.41189710289601    0.55397053630533
H          -1.91367230241436    1.01347713906946   -0.31259129212483
H          -0.83028881870881    1.66925364763324    0.57806994676175
O          -0.15336580947970   -1.79296843719942   -0.88626174606331
H          -0.76788988430020   -1.10671568871763   -1.31817309546907
H           0.71576872689398   -1.25746752853256   -0.62680501193748
H          -0.61768836050178   -2.13635687937542    0.01289111122998
O          -1.38129737041315   -0.36429373130224    2.52241719489859
H          -1.72156504042552    0.32846778230198    1.91684902510937
H          -1.39509590013905   -1.69913805639342    1.77171296213805
H          -0.41337726366945   -0.23142399724608    2.53531071588681
N           0.69696096677079    1.46891713370439   -2.25448273293686
H           0.85025094049202    1.67458203530147   -1.26355076175416
H           0.77421527769989    2.33689515227030   -2.76950265309945
H           1.45808956767855    0.86203075386617   -2.53461941766953
H          -0.67456797440300    0.69028703199824   -2.15789790100412
