    26
        -50.45071952  Gyration_radius:  2.45453792486 Dipole_moment: 5.471
 S           0.29326258136063    1.82340660526810    0.66102158656791
O           1.46694417229377    1.87549480776001   -0.17968505399849
O          -0.92755029837376    1.65043011444169   -0.14151271028292
O           0.35608601940326    0.86290383145471    1.73788412896748
O           0.16062194169317    3.25169195918300    1.33088315347759
H           0.52846273036264    3.80651730272839    0.65185287558026
O           1.29970089742061   -0.41856954584116   -2.76548389781286
H           1.53096243656029    0.40863269339984   -3.19284476529674
O          -1.35761008505425   -2.07598190707795    0.00082663664224
H          -2.02051850967885   -2.74741446119807   -0.16553249185886
O           1.24618511888988   -1.62524462299757    1.11152629980530
H           0.43972736969246   -2.00910423711892    0.74687410584326
H           0.98642134416914   -0.77047642855445    1.49785318691745
O          -0.96500376802697   -0.23805164544500   -1.74239605774499
H          -0.00304042524708   -0.32630843181358   -2.19946333683329
H          -1.09810123322137   -1.03728876824572   -1.12707923435689
H          -0.95306898505014    0.59995521979621   -1.10436101393899
O           2.78542789041550   -0.39150358964915   -0.70182372747940
H           2.49258038359283    0.50120139944735   -0.43357000690195
H           2.39952268540861   -0.99431635204638   -0.03092252165883
H           1.94858204017855   -0.50515360131311   -1.97968606854816
N          -2.19541319549287   -0.28429764183401    1.68100122744765
H          -1.73313079379147   -1.44218761691639    0.71027835206742
H          -2.77113515863663    0.40065369825327    1.20617635999849
H          -2.61528658327565   -0.48695801317064    2.57945399135766
H          -1.29462856559345    0.17196923149077    1.84872894203944
