    26
        -50.46975380  Gyration_radius:  2.44536212769 Dipole_moment: 3.732
 S           1.73631835534711   -0.69597124296140   -0.33429624827298
O           2.42837469213659   -0.79176619773106    0.92723854672170
O           0.59853739186028   -1.61443635935746   -0.43239035969400
O           1.34012222248605    0.65463002299010   -0.68258014534516
O           2.76525767009309   -1.18730110277005   -1.43781689297449
H           3.56950648289326   -1.19453320935467   -0.93100667240472
O          -2.23618930352541    1.30907645988993    0.24028089668477
H          -3.13191858783621    1.60376944686024    0.07454565858821
O           0.77589888991766    0.14390320231261    2.80837815805832
H           1.51543594617016   -0.23080626237176    2.28682718516276
O          -0.74673384020722   -1.49043434522526   -2.72496106754948
H          -0.24677437640152   -1.63586045357114   -1.89577496873104
H          -0.13692827212958   -1.68097033797544   -3.43939040656960
O          -0.95167837185038    1.11290087962417   -1.99105531697383
H          -1.78226649513974    1.27007699931133   -0.65839887691684
H          -0.04684863004185    1.08230483359977   -1.62470000638466
H          -1.07875428973793    0.23094590610445   -2.39086583393661
O           0.30107294731425    2.24417902266515    1.26144980125267
H           0.79036189150795    1.83404012836785    0.52647580184920
H          -0.62819449637024    2.21139745378741    1.00059781971422
H           0.68335821794486    1.06637646862757    2.47350234081033
N          -1.13531312477387   -0.86341371192944    1.39523410015971
H          -1.68455649484462   -0.06513666583251    1.00357069553585
H          -1.74202235328939   -1.57085429232383    1.79441496294838
H          -0.53526328120198   -1.26544944524304    0.62926071940614
H          -0.42080277032278   -0.47666717752651    2.12146009886520
