    26
        -50.46975336  Gyration_radius:  2.44537784978 Dipole_moment: 3.753
 S          -0.62255121701371   -1.29599593643337   -1.24524789746905
O           0.82197323921487   -1.20415488760622   -1.01474915532921
O          -1.24260829422211   -2.36450827860692   -0.50130517735741
O          -1.25750859602413   -0.00628752626577   -1.05645698644756
O          -0.77721001015921   -1.68071623832463   -2.77688760944897
H          -1.39741197010267   -2.39829663154850   -2.71117268467418
O          -1.11628470638184   -1.70562093816842    2.08586893970405
H          -1.25925165138371   -2.12653530070889    1.21308581007133
O           0.53342553028503    2.03402553828364    1.53165886633268
H           0.95506212744500    2.82415548206176    1.87016226743958
O           2.05156712826534    0.75934706012860   -2.32321235398280
H           1.90827952080837    0.62926715068598   -3.26190331285783
H           1.66848640983195   -0.02474954371752   -1.87908182471545
O          -2.02845297737890    0.70111010813902    1.45146773067881
H          -1.65490037649502   -0.88070529945290    2.05006702008153
H          -1.33014049924058    1.33875713677386    1.64773833021248
H          -1.93882544645957    0.50386834160197    0.50229520343484
O           0.19413775327215    2.24519786114639   -1.01929206294380
H           0.98189614217830    1.92705960386377   -1.50098980126965
H          -0.46041275183238    1.52880529160215   -1.12944594807587
H           0.41107893319219    2.18227211790327    0.54257756583741
N           1.14310113852326   -0.59205966227183    1.52159177321594
H           1.99094899461316   -0.90371786191792    1.98199895817731
H           1.01216752404469    0.44007600099208    1.61953776003948
H           1.15653602822572   -0.83305563608111    0.49680024000429
H           0.25689802680032   -1.09753795206613    1.90489435934929
