    26
        -50.46975349  Gyration_radius:  2.44547278366 Dipole_moment: 3.760
 S           1.86338265657753   -0.24584843183322    0.29045924329276
O           1.41766028887623    1.03302282794892   -0.26987434927430
O           2.10300175063785   -0.18277825567552    1.71109963030974
O           0.97396579167386   -1.31997940840117   -0.10610239221330
O           3.27382518680202   -0.52650351395262   -0.38013152920187
H           3.78709686069324   -0.74981126224969    0.38831578224929
O          -0.26478136364677    0.16724193190841    2.90064251265554
H           0.67889337080355    0.04549597388268    2.66829258422761
O          -2.54565656042930   -0.08988620078907   -0.52816796366427
H          -3.37417350953900    0.01644186800130   -0.99607381860467
O           0.92089344134282    1.01326471805095   -2.88380181751245
H           1.16159243954789    1.10103594564369   -1.93871491794515
H           1.72301625763560    0.75251709860294   -3.33902502002553
O          -0.74159418974020   -0.99591602412810   -2.13767665717599
H          -1.89072754207637   -0.46208177068783   -1.19744928201149
H          -0.29313480948456   -0.26317223335621   -2.60228012496902
H          -0.09400745499741   -1.28770434707733   -1.46731199238461
O          -1.23540936779526   -1.79409435671101    1.40388947612757
H          -0.41586464188072   -1.82281153063708    0.87915524005088
H          -0.69850437159574   -0.66744029845192    2.60600788661265
H          -1.90180230170702   -1.41299318288076    0.81795011173357
N          -0.90982658255129    1.56700042265061    0.82964965741675
H          -0.73202531504036    1.08015244603190    1.78822183505514
H          -1.63870974895621    1.02966503593914    0.30768294697974
H          -1.17260269898432    2.54027019811993    0.93753271488383
H           0.00549244383064    1.47491234004730    0.31771026338019
