    26
        -50.47391729  Gyration_radius:  2.44040839407 Dipole_moment: 2.101
 S           0.45617040143157    1.73794986810646   -0.70882024248937
O           1.29199298606586    1.13493064362987    0.31958291661038
O           0.87309890292066    1.43208246219678   -2.05823671285202
O          -0.94954636502769    1.44953395902134   -0.46506092874410
O           0.63412356316272    3.30333389852182   -0.55564256580912
H           0.65783293632484    3.55578815525241   -1.47125757244614
O          -2.42874141413941    0.99950234386377    1.68785192949963
H          -1.99394527189437    1.34427019489219    0.87995514749526
O           2.05368499024568   -1.44859521663588   -0.23430362844281
H           1.97928673151786   -0.50138954865434   -0.03291904221478
O          -0.01511750555782   -2.28380536985478    1.21522131527980
H          -0.67313863968104   -2.06345272258629    0.51726892358368
H           0.85168514783434   -2.19613637407812    0.75271899858682
O           0.66663208884333   -1.12043841907921   -2.61817948035487
H           0.74525944840531   -0.14897462846356   -2.46694202314574
H           1.70521213721958   -1.54107279632732   -1.13497367986747
H           0.90002748046576   -1.27076689182209   -3.53536298774290
O          -1.42376237968223   -1.19015570634774   -0.77963862568975
H          -1.33647752316270   -0.22349603250594   -0.69099964625516
H          -0.86112824792774   -1.41391622843224   -1.53493179127063
H          -3.02219343840915    0.30951252944995    1.38068608602868
N          -0.01848453741860    0.03610507395145    2.34199978667410
H          -0.99823145518309    0.40651422064665    2.29136814299546
H          -0.02224527182034   -1.00148716710209    2.00129809040253
H           0.55017384532598    0.55980439418563    1.62989839671310
H           0.37783139015396    0.13435938814325    3.26941919348658
