    26
        -50.47391495  Gyration_radius:  2.44049327066 Dipole_moment: 2.071
 S           0.13881947844584    1.42952890658452    1.28988849615920
O           0.28875075072508    2.60057905653867    0.45620972749980
O          -1.13253574230184    0.74058951644392    1.11449049263412
O           1.24865260895195    0.49563756160105    1.17653032113734
O           0.14594846866487    1.97016410174505    2.77783144468513
H           0.46321285777793    2.85304584209928    2.62765491886122
O           1.59817652607294   -2.07874447215363    1.70175566822988
H           1.60071685094320   -1.09911551575432    1.67275737606052
O          -1.93573737870137    0.56175983108563   -1.50828311785187
H          -1.82219112776504    0.71923936034564   -0.55656645462862
O          -0.82217622029949   -1.85251123587915   -1.60795659387188
H           0.09430396081615   -1.49679707112738   -1.65710923314717
H          -1.38768099157796   -1.05685164236456   -1.74930888886632
O           0.36349189519687    2.00498977261963   -2.09622733331060
H          -1.25322538131812    1.10311282996113   -1.93531668501324
H           0.36415680614094    2.28102301957420   -1.14941292333791
H           0.51575890349067    2.80000935926135   -2.60909282623849
O           1.44162465480259   -0.45118976211189   -1.34541072504245
H           1.46079132084183   -0.12275515620546   -0.42797123111998
H           2.16556791353907   -2.35488261911385    0.97757366802169
H           1.22909966043246    0.33035621781736   -1.87543605599015
N          -0.96994920089892   -1.89891169308485    0.96663259378514
H          -0.02041112935541   -2.15473047348543    1.33059986727108
H          -1.70445273300127   -2.44021574576669    1.40751297581271
H          -1.10329780456227   -0.87051522135531    1.13819983251300
H          -0.96741492711030   -2.01281475729203   -0.11954531423613
