    26
        -50.46418304  Gyration_radius:  2.53377197792 Dipole_moment: 4.753
 S           0.06152275580046    0.37550908459040   -0.78942041985729
O          -1.29194249751401    1.08276748271186   -0.41135292681443
O          -0.04249357956256   -0.16395261630073   -2.11808599353538
O           1.06957081161376    1.40476831237704   -0.62349247879738
O           0.23893152455278   -0.68829521029455    0.22178773845028
O          -1.82360705932422   -2.13434829538227   -2.17678690377464
H          -1.23680732376610   -2.79859078435712   -1.77264332743827
H          -1.21821798594912   -1.38919482330101   -2.37239249642196
O           3.19635360828378    1.23243960427269    0.91074526789613
H           3.84048546327445    0.65371704046400    0.50065100273048
H           2.49238370380610    1.37934781137016    0.23536384980525
O           0.47553466248896   -3.06415699018799   -1.03892078558202
H           1.01070748873334   -2.81205943760936   -1.79468220368862
H           0.39559767543927   -2.25756397347432   -0.49621066610915
O          -0.25822635050476    2.79784353249717    1.40522838475828
H           0.44422077176194    3.18484391499640    0.87238497069912
H          -0.79698700754117    2.30218363525306    0.76152908906566
O          -3.04026774518177   -0.76882095116327   -0.35089918543300
H          -1.99231927560671    0.35478468447258   -0.36169175089388
H          -3.86596019049146   -0.46859303356436   -0.73674113009519
H          -2.64121257082717   -1.40663876924010   -1.01754588375786
N           0.99767718055940    0.62840807562962    2.27627418401092
H           1.99775283941605    0.81064461400273    2.03623169329874
H           0.63809514101233   -0.02611198985358    1.49526502778240
H           0.87677274093061    0.23553837624628    3.20304345968990
H           0.47243523859132    1.53553069583369    2.14236147400935
