    26
        -50.45376608  Gyration_radius:  2.45985515351 Dipole_moment: 4.188
 S          -1.60781103838048    0.95285162111268    0.65481984779380
O          -0.17661182418228    1.01049666995993    0.51612910412232
O          -2.14394197364626   -0.15432280146228   -0.27792175480925
O          -2.08500690867547    0.75722485795231    1.98340969483081
O          -2.23133938510018    2.23731769391081    0.06668247369741
H          -1.87324141840778    2.25751330481191   -0.86015723172215
O           1.35126180038659   -1.96346511946119    0.81882421194692
H           1.49442224164113   -2.88432929165265    1.04201497671268
O           1.19523624250342    0.56720943973548   -2.40297809379364
H           1.80961452808224    0.76975982472081   -3.10962067773371
O          -1.24700100916321    1.78030195044124   -2.29219330387082
H          -1.78735320516827    1.02532005443982   -2.54004685743059
H          -0.32224574425855    1.45841384091659   -2.27356212856722
O          -0.24808247569138   -1.46745505411556   -1.28320709142894
H           0.25483565070700   -0.81821201971225   -1.80742760542882
H           0.33335710912149   -1.69208815994896   -0.52210364215260
H          -1.37832678426895   -0.72189484598518   -0.68552942037191
O           2.36834152557494    0.49433391425644   -0.06545313880291
H           1.57051244986570    0.88869154036149    0.32463839855111
H           2.32192316462562   -0.43289613278117    0.20971344553224
H           1.71329615811088    0.61084590959191   -1.54961134789869
N           0.08729593826817   -0.92498217270401    2.90834193042350
H           0.86936861279198   -1.55083353047396    1.59807793621439
H          -0.31173136989064   -1.55288679056992    3.59659983104456
H           0.71678385251913   -0.30014954763854    3.39831154167085
H          -0.67355612736177   -0.34676515570423    2.55224890147074
