    26
        -50.45376637  Gyration_radius:  2.45998588066 Dipole_moment: 4.217
 S          -0.29771329470176    1.93326017119201    0.32370095941497
O           1.06577776600307    1.61267969950931    0.97308319150097
O          -0.71669739906662    0.78862766949280   -0.44125562218395
O          -1.22347598933345    2.38108700464262    1.31026744257857
O           0.03608585751769    3.09615901818800   -0.63580305144830
H           0.70891070805146    2.69743090536037   -1.24899181537903
O          -0.57025728600265   -2.11378236295960    1.24495500088598
H          -0.51865555556666   -2.73029005371980    1.97678402408813
O           1.47056252350886   -0.95178578089844   -2.11419135159259
H           1.79655081260509   -1.42654197014389   -2.87975902801447
O           1.88354209122418    1.73248202802858   -1.84747893101812
H           2.53948475460320    1.70058930429612   -1.14600588614004
H           1.62989904658536    0.80351980508321   -2.02525756436676
O          -0.97363649782613   -1.64405461749792   -1.48881426898346
H          -1.14953241682715   -0.72206758820346   -1.23724663602848
H           0.52227146534291   -1.23707150003096   -1.98026610873053
H          -0.89483766162512   -2.10102342123840   -0.63873079388813
O           1.68502361087724   -0.79852590476199    0.60703246907635
H           1.74537391558202   -0.90136564128720   -0.35998044147709
H           1.32959838693834    0.61789958137768    0.85070964311900
H           0.88346503757120   -1.30373527495334    0.87145135161359
N          -2.25957626656233   -0.22726681205339    2.03860627990837
H          -1.20489462325863   -1.38714188552399    1.52598215502826
H          -2.49463140246531   -0.17154157123633    3.02292526687149
H          -1.86444869285859    0.67450651026998    1.77283885041995
H          -3.12818890031553   -0.32204732293330    1.52544487474499
