    26
        -50.46162543  Gyration_radius:  2.55230296693 Dipole_moment: 4.692
 S          -0.83312480731881    1.49439023491745    1.47323637446457
O          -1.49425455034423    0.28537807208426    1.93239015037972
O           0.58419121512371    1.54148460378513    1.74482769954823
O          -1.10709289437615    1.75864165341222    0.05803673114078
O          -1.48962371280941    2.69015454419478    2.28527995950911
H          -2.42774824566803    2.52516660506518    2.24706533994466
O           1.63910144164617   -1.42145519808524    0.29456778617956
H           2.50501747988320   -1.82156214701866    0.38707311517821
O           0.59296798640370   -0.22834771693299   -3.31049131848105
H           1.18100602138781   -0.65383127313540   -3.93526795078171
O          -2.29522719530607   -0.67596861292337   -0.44129557821095
H          -2.22296412122057    0.20297929209334   -0.82945589185489
H          -2.09730252168228   -0.52462119583704    0.50058681398623
O           0.79275424355960   -0.89759985625666    2.68800360181622
H          -0.17438662264890   -0.94020045976639    2.66629417846488
H           1.29059796286845   -1.30844620948964    1.22895504664826
H           0.95426971517166    0.05948524744376    2.56898535822941
O          -0.31902303692465   -2.03296683033461   -1.65704586724303
H           0.15429135713995   -0.96351306976291   -2.79567574863538
H           0.33367230224259   -2.02875134583203   -0.94290582927528
H          -1.13781621837970   -1.66351068488251   -1.25989277010705
N           1.13231749172063    0.93046235399074   -0.98955859504444
H           1.38891882752268    0.08818392204087   -0.42567731845493
H           0.21145626780642    1.31028828735627   -0.60881907153233
H           1.84129708710276    1.64919252066494   -0.88857583213475
H           0.99670452721576    0.62496724324387   -1.99064039373286
