    26
        -50.46306153  Gyration_radius:  2.54964657179 Dipole_moment: 2.595
 S           1.54983693518218    1.46176983720467    0.65950181910170
O           0.64068610138611    2.36842604240138    1.32923305375327
O           1.66253783363911    0.17547329311116    1.33579222948548
O           1.26778376272495    1.29868098223534   -0.75459438755719
O           2.97955693785263    2.14863145444859    0.75667678130050
H           2.87963426178066    2.67151832843086    1.54544612200960
O          -1.91556624171292    1.69428078808170    1.17113353209012
H          -1.04702223304067    2.10368043604747    1.37576266453091
O          -0.13278545276952   -2.79580826029650   -0.62785459766293
H          -0.01112497659417   -3.64132480801972   -1.06192387066040
O          -2.13726302343440   -1.26490472703537   -1.56163245494838
H          -1.36725896527453   -1.82443012542164   -1.32054614760782
H          -2.74628908456190   -1.34142929662369   -0.82303814236700
O           2.26471789109976   -1.72114315136824   -0.37036685437308
H           2.06835907101332   -0.93009495410033    0.18303681271118
H           2.92809681936400   -2.21488592982183    0.11565860503926
H           0.76325298497505   -2.37317120196814   -0.59106159170348
O          -0.85051761723321   -0.79774973819196    1.33909591338448
H          -1.80078509222439    0.76808052256071    1.44620480086858
H          -0.72727594443873   -1.62093637768141    0.85317297679343
H           0.04941781470028   -0.44654721244323    1.47134485771242
N          -1.27571464987243    1.26574459338738   -1.32265517726299
H          -1.55370446716668    1.91762422752656   -2.04714698096228
H          -1.58975530405984    0.28858963360260   -1.54556001305380
H          -0.22269849880140    1.27771672539623   -1.19287716815572
H          -1.67611887253047    1.53220888853892   -0.36280277247214
