    26
        -50.45526204  Gyration_radius:  2.41600140106 Dipole_moment: 6.824
 S          -1.34142570353263    1.33273134795249    0.29643714267702
O          -0.05838413628131    1.36129160805071    1.04457054924378
O          -1.24099830046747    0.46882052061730   -0.85321396688235
O          -2.42055392213049    0.94710179882434    1.19849960411347
O          -1.61417410597824    2.78714176250001   -0.19352064684292
H          -0.85605205074994    2.94639676093017   -0.79606280765689
O           0.25228870699728   -2.42533075334680    0.90879707091843
H           0.78949736898174   -3.16696048792229    1.19186665838967
O           1.52820070389661   -0.00393036800138   -2.35828122329682
H           1.89455241708422   -0.07336204408801   -3.24057013605929
O           0.77433429768201    2.53674394053618   -1.31232158954722
H           0.90799036674885    1.71295438191703   -1.81232712746979
H           0.94482830774595    2.30292339688658   -0.39194063549657
O          -0.40910377427293   -1.79401858355768   -1.90740321402886
H          -0.26427603656887   -2.28963631208533   -1.09321481719958
H          -0.92273581977797   -1.01357690272238   -1.62453767593606
H           0.79812286097773   -0.66813694975159   -2.30146153445539
O           1.78564319289534   -0.42355986940702    0.33698277627628
H           0.89601188935039   -1.70074549467150    0.63410510222969
H           1.91073022217756   -0.31221143226557   -0.62037073247097
H           1.16870555830435    0.29556629788439    0.58753410537315
N          -0.90589351503358   -0.60471535452930    2.50583072334702
H          -1.77846687344011   -0.15171505673829    2.05812862942399
H          -0.59962450597726   -1.45455962230270    1.96815221216395
H          -0.23774142091998    0.16704634271782    2.27324080202954
H          -1.00147571771549   -0.77625893743362    3.50108071115330
