    26
        -50.44778465  Gyration_radius:  2.50280082555 Dipole_moment: 3.954
 S           0.67888314001667    0.81601372662750    1.68477117350289
O           1.41423733048019    0.02040795356523    2.63307012118530
O           1.43058820538222    1.01500537673236    0.43227523424058
O          -0.66674132995211    0.36634851025140    1.41042103474365
O           0.54629035938308    2.25986026696953    2.33310399137005
H           1.27577671966345    2.28133766196417    2.94416332980394
O          -0.71136628423649   -1.37964183361638   -1.77728968040296
H          -0.37103130460102   -1.94804028761544   -2.46954227802063
O          -1.83186569071300    2.31779002150866   -1.60962097606783
H          -2.34974135635406    2.45764120897509   -2.40410645224415
O           2.91792450199439   -1.32051859690904    0.85429734115449
H           2.99904522455054   -0.56370878926275    0.26675334522124
H           2.53182675382214   -0.94468205804429    1.66593878441034
O          -2.66445370569447    0.19165808773500   -0.36345994436644
H          -2.08217608881070    0.26932243639537    0.41580613075332
H          -2.29686674772509    1.60995584762403   -1.07940889808992
H          -2.28999729212497   -0.53024295075178   -0.88417953613864
O           0.30418559169139    0.94776866998135   -1.75440591386001
H          -0.49377056088867    1.59495775509043   -1.72089776243406
H           0.79608878370355    1.01354365724527   -0.80593212649906
H          -0.09844153135738   -0.00609453040179   -1.79643099062823
N           0.22401014679807   -2.15754164035318    0.46549526109944
H          -0.34302980004278   -1.76121931232826   -0.87135842943122
H          -0.11784041265020   -1.40962435578318    1.06615754165233
H          -0.04717920102559   -3.04176812062340    0.87607494600606
H           1.24564455868972   -2.09852870498005    0.48830472304815
