    26
        -50.46862848  Gyration_radius:  2.47482110166 Dipole_moment: 4.011
 S           2.23056979703928   -0.09415228228741   -0.24422296131943
O           2.55227810485269    1.25819176566798    0.16209896405403
O           1.79964821695375   -0.96658133480732    0.81375916287104
O           1.27624431434785   -0.11052809246471   -1.36590978582173
O           3.57964888217603   -0.69210589254739   -0.83159799054930
H           3.99796828147916    0.09381840863739   -1.16700800706829
O          -2.55180005057186    0.32199635613434   -0.91189272024222
H          -3.31764358207878    0.64868640220663   -1.38429950634455
O          -0.43841015871696   -2.22736769412223    1.52084466012042
H           0.48732591304812   -1.92024838147497    1.49980679906398
O           0.37627968020757    1.97909619388795    1.37720886564607
H           1.23219090077174    1.69366900630618    0.97279757778111
H           0.60772950051789    2.51522607584843    2.13765968532281
O          -1.65098790415362    0.13017281959396    1.79058980773133
H          -0.91938488632731    0.76763284847843    1.72578161685418
H          -2.15290287999196    0.22243008358735    0.96953455242715
H          -0.94731023381718   -1.44663520014707    1.84222502952500
O          -0.50686044286294    1.89086662647371   -1.23328503808216
H          -1.81501833514488    0.98390374247459   -1.07173401246214
H          -0.30735707985668    2.22036414151061   -0.34360073441316
H           0.20926300657996    1.25196518731065   -1.42082103593241
N          -0.76074018868982   -1.72433261398723   -0.99158862104761
H          -1.58072176041090   -1.09187884581571   -1.06105408226666
H           0.10400178091948   -1.14339630748809   -1.18800163512075
H          -0.67318767950591   -2.06157359256431    0.04340150156220
H          -0.83082319675994   -2.49921943043335   -1.64069209227705
