    26
        -50.44778568  Gyration_radius:  2.50278957284 Dipole_moment: 3.936
 S          -1.43106091578274    0.25109443179543    1.35973794232238
O          -2.50502469555917   -0.70165613116957    1.46983325397023
O          -0.13818706799552   -0.32456486489078    1.77195123615529
O          -1.31535591184754    0.90790243025404    0.07755962484466
O          -1.74585962874023    1.38989307575785    2.42131271187385
H          -2.32515393335565    0.94816483444164    3.03387475075014
O           1.39733265891561   -0.61559381777329   -1.79935194536752
H           1.95817870115725   -1.33067575531586   -2.10305676827953
O           2.01241741025767    2.69444670915366    0.10626708952409
H           2.79726294890294    3.07245028566001   -0.29377406706291
O          -1.01482580659836   -2.92172369532119    1.19632690244174
H          -1.73602148042496   -2.28666841607369    1.35631333676019
H          -0.27068841082860   -2.55047631176365    1.67883458411590
O           0.29446380845177    2.04287144997579   -1.73537144300743
H          -0.42416883043281    1.76156719212260   -1.13799901221971
H           1.32107317351108    2.62994936517674   -0.61215747339710
H           0.65570404920404    1.22275681510302   -2.09504552581379
O           1.93274481376251    0.19247865304171    0.54768164223299
H           1.74559648241336   -0.15232909380785   -0.41141949679716
H           2.01258790530725    1.21472496953492    0.47511633626311
H           1.04285557720185   -0.00962171543168    1.10723395392319
N          -0.92472627373810   -1.54543883364237   -1.29522104264453
H          -1.53206424534069   -1.88428088392592   -2.03030711035102
H           0.44392129401296   -1.02871502064095   -1.65000006445038
H          -1.35637056321772   -0.72167853896973   -0.88034610973323
H          -0.89463104922843   -2.25487710329584   -0.55799329606058
