    26
        -50.46460298  Gyration_radius:  2.53561020368 Dipole_moment: 4.544
 S          -0.23127768466352    1.63345853000901   -1.33638634864027
O           1.04237172944533    1.56857753734080   -0.60399814492033
O          -0.34634331707174    0.54129162214006   -2.27822804705857
O          -1.35986335525045    1.77341468301489   -0.44316918976516
O          -0.17010493012206    2.96292629693051   -2.19567076573543
H           0.32393599581648    2.69262183371923   -2.96300975948228
O          -0.13702002666460   -0.03867334270051    2.68410347276233
H          -0.10237115310534   -0.04559255529458    3.64098156471034
O          -0.80012721671774   -1.79882424004420   -1.14200005372934
H          -0.71515074051085   -1.02775696539007   -1.74508757174308
O           1.74521205543844   -3.13750899112357   -1.02445554068002
H           2.06842225045675   -3.77529051823915   -1.66145677729618
H           0.82358469860417   -2.95950751606271   -1.25838397835493
O           0.02331279977715    2.39313851276106    1.72329471259513
H          -0.09041334362527    0.91971221418747    2.40622958901724
H           0.72536230663351    2.29901489240618    1.05826257185354
H          -0.77201404842621    2.40844832266675    1.16277416135269
O          -2.19420305243729   -0.52030349019750    0.72409685617448
H          -1.53409154243218   -1.55526762285762   -0.53558936409710
H          -1.67516295103646   -0.46710769083007    1.53768943527491
H          -2.07947518604392    0.34233491756921    0.28520428897124
N           1.11612031962378   -0.84574257904943    0.41355166619609
H           1.94821585499245   -1.42618104532072    0.32448853546348
H           1.24338587801394    0.11189049963564   -0.01351662237557
H           0.34503101196944   -1.31746382749978   -0.15342203956546
H           0.80266364733958   -0.73160949777358    1.39369734902407
