    26
        -50.46212479  Gyration_radius:  2.51214425763 Dipole_moment: 6.141
 S           0.11083029781145    1.25891546489004   -0.24397124757037
O          -1.05552657998005    1.75543168026836   -0.92003507995813
O           1.08053384263576    2.43957994786940   -0.00772290993431
O          -0.22665361528599    0.71464353749883    1.08942329194398
O           0.82260179869435    0.23059590294075   -1.01017935334675
O          -2.85505266695209    0.20667647546762    1.23260136864459
H          -1.94549338386160    0.57013263169665    1.19275622037514
H          -3.43334711364600    0.96688923693506    1.31089483470688
O          -0.64224387340237   -1.90553510062650   -1.46067574350069
H           0.01015904268404   -1.16928949515599   -1.48494200734592
H          -0.74869710953014   -2.00605576334380   -0.00038667949599
O           3.42089121540219   -0.10805083159734   -0.95613707371780
H           3.55366787258936   -1.05299807369930   -1.04568763312327
H           2.45883724622159    0.04596292304090   -1.10306489418441
O           3.14399236893260    1.39451967543560    1.21344663521282
H           3.81637422451524    2.07934406641518    1.21841559145070
H           1.81366138983187    2.04732841538252    0.53055647785542
H           3.38246640669257    0.78128954376631    0.48041574556809
O          -2.69380015051161   -0.27130486498441   -1.50788772909102
H          -2.15223710560243    0.54257063315653   -1.52869465365537
H          -1.49639835694955   -1.45144618898533   -1.67867092319818
H          -3.04789541586656   -0.28079491571594   -0.60522675514175
N          -0.81159716886061   -1.79529617515900    1.08560078296957
H          -1.78799794200278   -1.74836765138311    1.37497980514112
H          -0.42958848772538   -0.79423053087900    1.17002103215895
H          -0.28748673582865   -2.45051055323291    1.65417089722913
