    26
        -50.45792504  Gyration_radius:  2.5924427482 Dipole_moment: 3.540
 S           0.45516520223907    2.03137496921108   -0.85924659941907
O          -0.40472026106406    2.68384863389862   -1.81875232381660
O          -0.00985663243901    2.17083039006858    0.51809903921134
O           0.76360248232444    0.64783188439109   -1.16822763812400
O           1.85411610764382    2.79442395765178   -0.92963714601982
H           1.58940853605216    3.70656116396617   -0.99672528924727
O           1.88799674885388   -1.45654164947544    0.10150047817565
H           1.95974039571722   -0.63452850844903   -0.41155659846771
O          -2.45659418308308   -0.87186090215257    0.24400333784773
H          -3.36299073323413   -0.82004729840175    0.54961980888323
O           1.84017460366991   -1.48841775076296    2.97377906131638
H           2.11823511923255   -1.62740651923352    2.05743167935803
H           2.57292760901047   -1.76176546085121    3.52627329140555
O          -2.17743929790341    0.76356914353674   -1.80547564636999
H          -1.91846909999655    0.26875280945682   -2.58688098431540
H          -2.37857607010219   -0.21087289464501   -0.49034259919479
H          -1.59052859728017    1.55294861430103   -1.78964377292016
O          -0.29835052418883   -1.87520333100367   -1.45609666830817
H          -0.02294063782307   -0.94866729394873   -1.56028426635379
H           1.31723346590076   -2.01792452228996   -0.45509764600585
H          -1.12128538986544   -1.85113093345156   -0.95650971689523
N          -0.13464555622334   -0.21743289081148    1.48684729479510
H          -1.07275889841590   -0.56025660188094    1.20330414573117
H           0.05517364885442   -0.34726926043208    2.47910329431881
H           0.60210647381371   -0.73827619066591    0.95739843481634
H          -0.06672450115623    0.80746044085476    1.18711703981545
