    26
        -50.45792440  Gyration_radius:  2.59301159601 Dipole_moment: 3.560
 S          -1.52503060668963    1.65599005048999    0.11847060560392
O          -1.55349363778985    2.75646351805166   -0.81637704816085
O          -2.15700485450580    0.44520635930044   -0.39891790687173
O          -0.21471953469379    1.36621344050439    0.66955986768447
O          -2.40810500508193    2.11253193055433    1.36592389263360
H          -3.15308527120403    2.53493224938787    0.94978411991662
O           0.94224995258424   -0.61246949608027    2.10818617487267
H           0.41319858224527    0.20067516566720    2.06173594191930
O           1.08088119645426   -0.70904027032157   -2.27149554317029
H           1.05461380100322   -1.01091961648275   -3.18025079323448
O          -0.22592653419728   -3.23409488373718    1.98471071548867
H          -0.31929549031626   -3.82312150344012    2.73383366159036
H           0.23727553337696   -2.44818089129745    2.30741783122633
O           2.33236908941424    0.51910652976220    0.06958315177185
H           2.23841066384951    0.03402897814245   -0.75702369855607
H           1.50394282557091    1.01537156010500    0.18270282041725
H           1.76818789544709   -0.36808585389628    1.65041613964410
O           0.44951762716288    1.85043989676105   -2.22927513641899
H          -0.35886675515135    2.19720878587132   -1.78855219496707
H           1.17699604363521    2.36226126643542   -1.86692730150308
H           0.79184777758031    0.23887135327633   -2.29096083066863
N          -0.41781926083770   -1.44164590550208   -0.13093394399244
H           0.14653760722452   -1.14327081069616    0.69774381870133
H          -0.75140258774940   -2.38636043217963    0.05271746389223
H          -1.21608411909850   -0.73671782731497   -0.23419135937602
H           0.16480505174769   -1.37539358333178   -0.98788044843599
