    26
        -50.45792440  Gyration_radius:  2.59309815984 Dipole_moment: 3.560
 S          -0.88241530224531    0.53807152704918    2.00395991987966
O          -0.75580939354738   -0.31290121054871    3.16394593322246
O           0.30340928497849    1.35402154501682    1.75690071622315
O          -1.30583624786906   -0.14639105993726    0.79696137686626
O          -2.05911354044803    1.56331522929925    2.33397758897810
H          -1.88400392791466    1.79590352551444    3.24052424016319
O          -1.45866926378043    0.40185190676990   -1.84890523010322
H          -1.83164036888672    0.44766494481061   -0.95332783568698
O           2.13002965871917   -1.50057539937903   -0.20217382504500
H           3.04296957908344   -1.72833902480365   -0.02240080636506
O           0.27996566836804    2.42488553304381   -2.91407679757628
H           0.02277312779191    3.06967890182468   -3.57368178488158
H          -0.48506873841534    1.84792257128189   -2.77898306143845
O          -0.61114087061676   -2.05307510010043   -1.05958238348733
H          -0.89761519620159   -1.56386189840988   -0.26964779144749
H          -1.31878303490549   -0.55400989902510   -1.98394618938032
H           0.34820529094651   -2.11209963414309   -0.99975212023983
O           0.69117337153860   -2.10116778789168    1.92395317870896
H           1.63176960374682   -1.69383431337118    0.63257482884127
H           0.22304689581679   -1.42540814555861    2.46446271722429
H           0.02317371900086   -2.75223787644083    1.69510414193077
N           0.98184926511209    0.90911959138776   -0.69230094883986
H           1.41371458318547    1.66485583842249   -1.22129977247269
H           0.74735269071090    1.19233744545470    0.31246387393546
H           0.07668283109261    0.67667099457848   -1.16230623930323
H           1.57398029483007    0.05760181530265   -0.64244371972931
