    26
        -50.45792379  Gyration_radius:  2.59365883727 Dipole_moment: 3.553
 S           0.17101817387900    0.92959627535865    2.04881326380219
O          -1.20114574574921    0.47825865415992    1.83297643103251
O           0.82270684308474    0.26193233785636    3.15129907719427
O           0.92422998475311    0.92184057804107    0.80899352191491
O           0.06712173520405    2.46671942358271    2.46201265140607
H          -0.18774332430165    2.41878719855178    3.37815303286267
O          -0.07432664260063   -2.58876769531865   -0.32761850532114
H          -0.43007007798827   -3.46544513240343   -0.17754604373621
O           0.47485988659313    1.50068858067913   -1.79870404404620
H           0.69496243549188    1.78937988151462   -0.89818203408051
O          -2.22292053396421    1.35225164283904   -2.77248354433016
H          -1.29919006228461    1.61751647254661   -2.65977628870195
H          -2.61015807130371    1.96857688556517   -3.39462834280669
O           1.96931669605064   -0.67421214488393   -1.17081284332729
H           1.15244984713670    0.82467930908660   -1.98828226326345
H           1.77796458420213   -0.19356169812681   -0.34748226203371
H           1.44683612412772   -1.48226411648502   -1.13181227771574
O           1.34940402923071   -1.89987630958172    1.78123694765362
H           0.41141070374003   -2.34637168453997    0.50180738036182
H           2.26087163169318   -1.73870296412312    1.52487267973709
H           1.10665754186332   -1.14926657449598    2.36925792484773
N          -1.34235594822018   -0.21090598844465   -0.64923702795259
H          -2.22605314669454   -0.08358709278482   -1.13949398164932
H          -1.39154668625082    0.09637912747726    0.37443628834490
H          -1.00962196090230   -1.19450777162531   -0.66042293811090
H          -0.63467800680769    0.40086280555706   -1.11737683207057
