    26
        -50.46126937  Gyration_radius:  2.53153332685 Dipole_moment: 6.041
 S           1.08722279217184   -1.75901658821853   -0.98533075113112
O           1.10081624813987   -1.65752507455352    0.46964143161794
O          -0.17510880806828   -2.25239810702811   -1.48934819243428
O           1.53886799514030   -0.53074807754840   -1.62271519703110
O           2.17904504774263   -2.85186215313274   -1.36335047985540
H           1.75973908025987   -3.66960784360123   -1.11434266669862
O          -0.94196280358548    0.90286126722213    3.07005068961439
H          -1.77091160262408    1.04364446277249    3.52853223761597
O          -1.76617084801627    1.07557299319527   -0.76713206970523
H          -2.63294918636788    1.40050793264691   -1.01368168804653
O           2.25418814329071    0.69858880511015    0.53529473458412
H           2.02299954201760   -0.14652072665058    0.96269901676259
H           2.18983601451385    0.43561438860158   -0.41028290342421
O          -1.33340965254971   -0.92429831672209    1.24263757307980
H          -1.07629432549794    0.09768127973269    2.49718679939220
H          -1.62244891389609   -0.42391838326306    0.46709208674102
H          -0.47505379037060   -1.32340035456261    0.99172482867629
O          -0.77279857444323   -0.10153660679859   -2.83555183921163
H          -1.38979403697568    0.64395615562404   -1.59651668221770
H           0.17915991956125    0.06409185787804   -2.73892875245135
H          -0.83115783309321   -1.02503569398741   -2.51305486366324
N           0.09117470776103    2.08861416437749    0.93335345722229
H           1.02277336243650    1.55470288747461    0.76748202750376
H           0.24490385986561    3.09045665914264    0.91380683000714
H          -0.59543567762475    1.79657217351503    0.20638369573233
H          -0.28723066978964    1.77300290877061    1.86435065731768
