    26
        -50.46214870  Gyration_radius:  2.45498813528 Dipole_moment: 8.525
 S          -1.67029816822779    1.30222832896447   -0.28734721383213
O          -1.06272093365944    1.45135540613229    1.04110705559412
O          -0.77823158763818    0.53056834544368   -1.16089098702385
O          -2.99286753491932    0.74156579890159   -0.23382115985672
O          -1.77852097489188    2.74683457222962   -0.88442668012595
H          -0.86594483930165    3.06309560419938   -0.90780953350213
O          -0.25080214627729   -2.47407194510656    0.80311217884230
H          -0.51881416215572   -3.26695541772585    1.26980608233224
O           2.75423421012936    0.40435004667209    0.12419791744951
H           3.68932498160984    0.23922777985775    0.00018242816449
O           0.97013674491910    2.50643327059715   -0.99283729736115
H           1.72361536798597    2.17617648424868   -0.49186591428253
H           0.45781143664400    1.71347872352224   -1.22971778005357
O          -2.32499283846845   -1.76746620665203   -0.60439617725853
H          -1.05894649625409   -2.18202540638968    0.28723689110104
H          -2.68712558541458   -0.87623267586563   -0.38977156651493
H          -2.02391557968373   -1.68173582872251   -1.51284459851684
O           1.23032192608565   -1.21070612543768   -1.26850952153788
H           0.89989181984307   -1.90242434430304   -0.68148574089563
H           0.47697088750008   -0.59611087810349   -1.37661236701511
H           2.27390363142808   -0.18230894930517   -0.52239659061016
N           0.72862629318534   -0.16131705393305    1.82734235751211
H           0.39862174072536   -1.10471346888433    1.53048228918403
H           0.83965416753998   -0.10302141808920    2.83317058447225
H           1.60979902334293    0.08130469550031    1.33176751419616
H          -0.03973139404017    0.55247065221865    1.49632781950781
