    26
        -50.44057494  Gyration_radius:  2.46875306593 Dipole_moment: 6.446
 S           0.44279823031913    0.95220489740190    1.63750277528865
O           0.73048634310853    0.09788416206455    2.76114655857600
O           1.62195182443022    1.09229573516677    0.74928929663914
O          -0.72047409124505    0.56870561615432    0.87945570567961
O           0.17933515854860    2.40326896586398    2.19723496628920
H           0.97560247786239    2.61342281367077    2.67525782556623
O           0.01187061542379   -2.32145197225113   -0.63796276358809
H           0.50401916456310   -3.13701761982423   -0.74521720560639
O          -0.37930071306568    1.00450364697611   -2.61521208415795
H          -0.51982280240246    0.92031010804249   -3.55909787146547
O           0.77751839890546    3.16197123126675   -0.95198464298222
H           0.21970850613666    2.63437732879716   -1.53206615657580
H           1.10925092030086    2.56094604734040   -0.27421544268409
O          -2.03509139383086   -0.41809537292762   -1.20947106802342
H          -1.77056469547739    0.01736760621059   -0.37707922680544
H          -1.13983107115790    0.54638725183994   -2.15268376677519
H          -1.60456350904945   -1.28159648491389   -1.17589691567264
O           1.39706329276375   -0.26706627714870   -1.27726239490528
H           1.54702303899862    0.32977098032438   -0.37796085588512
H           0.85484998852805   -1.09301776700047   -1.00222371759066
H           0.78343230893969    0.29106383830125   -1.87131122405806
N          -0.61416175136298   -2.17046886883601    1.86181613479588
H          -0.23694090373054   -2.25946463857963    0.36254960991256
H          -0.46861811590775   -2.96363590852208    2.47495500250440
H          -0.07701953016117   -1.38099858652359    2.23394271264024
H          -1.58852168143721   -1.90166674289435    1.92649475888391
