    26
        -50.46214877  Gyration_radius:  2.45504721347 Dipole_moment: 8.527
 S           0.36045460783398    2.03002470096220   -0.56362884509180
O           0.35173085142610    1.84503543301244    0.89300487825075
O           0.43096654264362    0.72548640543300   -1.23248178307145
O          -0.74767350277682    2.81781667482638   -1.03056675065673
O           1.68189759400872    2.80221076117000   -0.89926810402904
H           2.38426389715708    2.22220018073403   -0.57731460785149
O           1.60637933209252   -2.01765670947704    1.05665274901040
H           1.95266068612117   -2.89734146945935    1.20898032863413
O          -2.40077834270796   -1.00309337373251    0.23058743888810
H          -3.32646915812856   -1.13502156769955    0.44055677572027
O           2.83153017241588    0.39848140730796   -0.17451676702901
H           2.01192248529794    0.34484532387412   -0.69674713950256
H           2.76327839727251   -0.31315497236680    0.47092803935751
O          -2.36686415588392    0.83805450543836   -1.61119583843587
H          -1.86423604503723    0.48013523504673   -2.34780691939751
H          -2.38399920683066   -0.27103730321561   -0.45365613380169
H          -1.87776396811096    1.65823833031084   -1.36697586671015
O          -0.00153372396575   -1.89018368541806   -1.00959260132062
H           1.10218156828510   -2.05570942773764    0.19805570415456
H          -0.91236735274146   -1.89433820080557   -0.68922651945029
H           0.17654680559814   -0.95605578085242   -1.23874629713551
N          -0.36341994380962   -0.36695322715457    1.90471792760540
H           0.41334710628528   -1.04346733175861    1.76340390792718
H          -0.58188342477541   -0.25164739383787    2.88777381011386
H          -0.04050502349972    0.59508540853806    1.48063737992348
H          -1.19966619828771   -0.66195393342539    1.35642523400766
