    26
        -50.47166884  Gyration_radius:  2.41863913631 Dipole_moment: 3.985
 S           0.82826585869101    0.25307487224257   -0.33157974787766
O           1.87594344060509    0.52957081486968    0.79132006517516
O          -0.48931153169687    0.34240397162983    0.31016797701840
O           0.98053737241208    1.22120090989521   -1.38970392089399
O           1.10838592706915   -1.11782892657874   -0.76050290332573
O          -0.67634219894289   -0.74562281815696   -2.75015081691966
H           0.09032364398548   -0.96040419484115   -2.19443163487703
H          -0.53244092548932    0.16470877647320   -3.01979497709357
O           0.01297816097658   -1.09847799757440    2.45860184745631
H          -0.25891916040014   -0.44149694098484    1.78133186965466
H           0.93473806011394   -0.89864900077803    2.63840786086546
O          -0.51572019365426    3.07645384770480   -0.26104284858559
H          -0.00397654940980    2.51022383653588   -0.87518844723146
H          -1.12094636013574    2.46514667277142    0.17083850275793
O          -2.35634043598266   -1.31093225623184   -0.69102894622928
H          -1.93142196681167   -0.55379722304144   -0.24534656060090
H          -2.03292503404046   -1.23694145678273   -1.60904451418125
O           1.64029494832226    3.06004932236406    1.25235980400860
H           1.83120255062492    1.50266724854497    1.02796286873191
H           2.31057817763438    3.53456735770273    0.75566920705575
H           0.78300596704138    3.22569386798303    0.78095447202394
N          -0.50179636510644   -2.75527441597856    0.44226076947688
H           0.26276337820595   -2.24915307853521   -0.09744198521792
H          -1.40417250038090   -2.36489165221326    0.01503859812938
H          -0.42950082789312   -3.76451646885585    0.38392161663199
H          -0.40520342574561   -2.38777506815954    1.41642185408484
