    26
        -50.46461155  Gyration_radius:  2.53506822121 Dipole_moment: 3.072
 S          -1.39738819915410   -1.21213893839211    1.00843380199486
O          -1.32920155493203   -1.94320452415979   -0.23760892617697
O          -0.18172830489886   -1.35306572131005    1.80037413352329
O          -1.77452523228503    0.18505091997192    0.83481911499390
O          -2.56845030621000   -1.86107357460170    1.85670931147017
H          -2.39561773867007   -2.79366326425038    1.77586904100158
O           0.66139337600915   -1.20876142836697   -1.80128769112152
H          -0.09634691026132   -1.64718714778165   -1.35354629380351
O           1.68781512898383    1.88017959580881    0.92885653911201
H           2.26851926860387    2.56000132639289    1.27159954336687
O          -0.46400415033255    0.67680328106986   -3.67095500653982
H          -0.02185258451872   -0.12024399818329   -3.34777989273441
H          -0.94876004981762    0.41808318891635   -4.45529412920906
O           2.09822698350141   -0.92133417253587    0.41131593203616
H           1.36661949288277   -1.21135512273194    0.98714216562219
H           1.39993349004217   -1.29036235062921   -1.15772594446635
H           2.21160308991471    0.02111390443005    0.59431989585400
O          -0.05392756673123    1.10262848763448    2.72585430469604
H          -0.92000275255430    1.28609940032815    2.34115894244868
H           0.02793142433508    0.13364254204697    2.60374170377006
H           1.07221434885986    1.63191103293214    1.67444121095857
N          -0.13063716873667    1.16704322990021   -0.96058573365486
H           0.26612442137069    0.25818885597729   -1.35838724417446
H           0.60340581310548    1.65823283230540   -0.42225444817052
H          -0.48191822551827    1.70730897653099   -1.74965266929090
H          -0.89942610305313    0.87610266860114   -0.29955767148521
