    26
        -50.45792508  Gyration_radius:  2.59148460016 Dipole_moment: 3.527
 S          -1.55343412699482    0.16742581391232   -1.61807349105721
O          -1.30542306105126   -0.21602455029769   -2.98804648942460
O          -1.14184531362993   -0.81467185138520   -0.63252160022592
O          -1.03409321725134    1.49175292484990   -1.28802638703224
O          -3.13841595551952    0.26704702822774   -1.46771692133200
H          -3.39853960718417    0.68258293666989   -2.28394408465004
O           2.56334929842375    0.16524463360339   -0.53005142213168
H           3.33960802031510    0.59815409909799   -0.88738111200133
O          -0.82912634324490   -0.90203736188674    2.04809232419583
H          -1.37967222938821   -0.95869739909883    1.24910226599890
O          -0.37936750703258    1.57152137921633    3.43786632368735
H          -0.66934582653047    0.67110324700557    3.23402220935114
H          -0.79239760552961    1.81018154999131    4.26811460472131
O           1.18786317573402   -0.85771670594943   -2.53461370728510
H           1.11631063388964   -1.80995073254499   -2.43130974604753
H           0.28628312760893   -0.55340908775355   -2.78366237516725
H           2.05021797121296   -0.16210552882884   -1.31206794511092
O           1.02236231853359   -2.11421766664964    0.46783336909859
H           0.29589684560417   -1.79994826115936   -0.09648385256168
H           1.77553246400173   -1.54842999696043    0.26830373960158
H          -0.13548880816420   -1.56801488857815    1.88884803103953
N           0.44020095200012    1.19543482825811    0.80885753687525
H           0.48569683332338    1.96034769730830    1.47988931941416
H           0.01267671550247    0.37580279449462    1.29845061607788
H          -0.18876714032579    1.42042999297771   -0.02691299006825
H           1.36991839589951    0.92819511551188    0.43143176400927
