    26
        -50.46162511  Gyration_radius:  2.55250592554 Dipole_moment: 4.681
 S          -1.23001293834205    0.36462293095749    1.85841080227346
O          -0.04374374000804    1.20848537282871    1.69059987558542
O          -2.22650750318796    0.62811305584150    0.83494164828926
O          -0.86269673138361   -1.02531673204892    1.99251778515968
O          -1.89213222031359    0.79326228256516    3.23602658604913
H          -2.30618827436657    1.63300320050855    3.05673719291659
O           0.04958792860318   -1.78915880032094   -1.26128037563249
H           0.22311146824439   -2.66428472258902   -1.61135171151941
O           3.06468409324143    0.74585368785328   -1.19154249082736
H           3.74053081215206    0.40705997652082   -1.77942486398410
O          -0.75340969404886    2.17424017398323   -0.79012701232193
H          -0.15183731914186    2.37683715882943   -0.06525459482638
H          -1.44845631234118    1.63983108109715   -0.36530467059078
O          -2.24402079567231   -1.90138241108157   -0.05862797068914
H          -1.81871171345922   -1.87991558006231    0.82157011826918
H          -2.63821098681144   -1.01839681408412   -0.11041610848108
H          -0.87768501765273   -1.82828774270205   -0.87919075182990
O           0.76738603148755    0.68667938471228   -2.43352304983364
H           0.42000727634736   -0.18946461136931   -2.21511158945672
H           2.23887961895770    0.84553501212474   -1.74462866015701
H           0.17878898802884    1.32054634197785   -1.96844411071251
N           1.58004165624759   -0.51727920496986    0.60349701930459
H           1.97859993438789   -1.10974534157990    1.32431915393823
H           2.31271832559438   -0.03608727624645    0.01591014799047
H           0.97323934985332   -1.08217274499055   -0.03362466855771
H           0.96603776357236    0.21742233220402    1.07332227964715
