    26
        -50.46162533  Gyration_radius:  2.55239487987 Dipole_moment: 4.687
 S          -1.97399498782991   -0.88229640918499    0.65176013489803
O          -1.53035965698226    0.31494136619412    1.37096958151427
O          -2.26856441155546   -0.59437335352224   -0.74121871466466
O          -1.05723213248093   -1.97911582894517    0.85521722122047
O          -3.35136994622038   -1.31491142701256    1.31166080726957
H          -3.98436279256347   -0.67555176029298    0.99652647604798
O           1.62375761351823   -0.97793664480962   -1.09747246285719
H           2.38307613055292   -1.51200575144072   -1.33538234200311
O           2.29030511571631    2.19313224337898    1.14328234591490
H           3.22718829442973    2.38676363772851    1.10082462194712
O          -1.26002241341018    1.88851851556798   -0.87470494274158
H          -1.32786848908055    1.97686798204725    0.08231511788671
H          -1.66544249810496    1.02037551273905   -1.05140840864943
O           1.39612138120927    1.83805570535759   -1.28533703911329
H           1.51311041128349    0.88830637618239   -1.42779235192984
H           1.95908496951193    2.21082661240286    0.20107167747611
H           0.42433852320989    1.97570874288612   -1.25075890611735
O          -0.48581562972431   -2.36851187047873   -1.67554470108697
H          -1.19427697220985   -1.74211696721931   -1.88404526699117
H           0.82063272163440   -1.49265667515581   -1.40966621799019
H          -0.65737683725127   -2.55857720499541   -0.73182233761570
N           1.03870052376319   -0.12545516880627    1.42590274005167
H           1.25050837299919   -0.55626014957789    0.49701738149415
H           1.25597895085991   -0.77740038745936    2.17234569424674
H           1.58002186555906    0.77739093433529    1.49881746724538
H          -0.00613809683369    0.08628197007715    1.45744242454779
