    26
        -50.44057496  Gyration_radius:  2.46875989965 Dipole_moment: 6.445
 S          -0.63387679559713    0.84993992796375    1.63088421369861
O          -1.73033831240701    0.98944477930068    0.64233536996146
O          -0.98751297283241   -0.07093902707302    2.68069717402713
O           0.61029028116095    0.55068332070981    0.96950309046285
O          -0.48648779072175    2.27971812693990    2.28074389952487
H          -1.33203138829049    2.43437436541608    2.69043142348810
O           0.14756678585397   -2.28483399393262   -0.74443150670876
H          -0.29701460650164   -3.11219646601817   -0.93594937412924
O           0.57706423942251    1.15001195812187   -2.51716308248474
H           0.80819092619818    1.11956361391787   -3.44635330559985
O          -0.82197614733571    3.17391167394631   -0.87226245406402
H          -0.19020598774513    2.69843644587321   -1.42068029666265
H          -1.18892706802977    2.52690496277613   -0.25795480267894
O          -1.25947040595573   -0.25552321937703   -1.41527147930036
H          -1.51806805570621    0.28857859500170   -0.50726107209533
H          -0.61789265833714    0.35531730879104   -1.92142289398626
H          -0.71003965159124   -1.07288855754646   -1.12903205533990
O           2.15491135482012   -0.27742364337083   -1.02903900533064
H           1.79553629430943    0.10475885062695   -0.20608077559605
H           1.76080605234303   -1.15746996738996   -1.07705150217291
H           1.31038859032356    0.69855486950068   -2.00667581778025
N           0.53205297102331   -2.23684965821676    1.80774579185004
H           0.29967393305096   -2.26416355252831    0.27693410312323
H           0.36479538589338   -3.06513200762675    2.36649062962156
H           1.48361163034202   -1.93407860328167    1.97702898673998
H          -0.07104660368683   -1.48870008252582    2.16383472143139
