    26
        -50.46461205  Gyration_radius:  2.53586924867 Dipole_moment: 3.104
 S          -1.74124595886299   -0.30151273681607    1.15213667524796
O          -1.99427463417927    0.95794133105130    0.46341727030343
O          -1.40072017980466   -1.37083077545570    0.22194561979256
O          -0.78670736819915   -0.15687347701125    2.22900951842211
O          -3.11313763023031   -0.74081549221997    1.81314790693880
H          -3.18914746165941   -0.14924419320849    2.55507946385025
O           1.56536152654630    0.75046002763483    1.45879197798949
H           0.76279759174905    0.45219696734766    1.94230331753576
O           0.29510637113260    0.64413177509576   -2.59542052775181
H           0.38567600733338    0.85010138615957   -3.52611645652422
O           3.24197751662564   -1.56725534817803    1.09163365024809
H           3.70316612309319   -2.00908713368249    1.80532456633240
H           2.93370911512411   -0.72230326032711    1.44711453668990
O          -2.17374281168228    0.01547750827306   -1.98228681102694
H          -2.13128371497212   -0.88292512438760   -1.63178987706158
H          -2.26679750707669    0.55326031995257   -1.16823909819476
H          -0.66912618478309    0.43396888656731   -2.44483917221410
O           0.24399412858744    2.30144890898915   -0.24175183427899
H           0.35332625161244    1.95542427403220   -1.13772052072860
H          -0.62606047774545    1.97788031293176    0.05710140952851
H           1.26825586415214    1.55140589160592    0.97252160031382
N           1.07720037986226   -0.92825477438289   -0.52204955229021
H           1.76800302883113   -1.67695062229586   -0.51155004942562
H           1.36839815080796   -0.22638596664421    0.22896905778243
H           1.00795844099698   -0.44796731969727   -1.43567054807535
H           0.11731340641338   -1.26329134443600   -0.24106211740805
