    26
        -50.45549986  Gyration_radius:  2.4472816966 Dipole_moment: 8.161
 S           0.70536454427629   -1.19129634467549    1.78136027116119
O          -0.55157164851556   -0.88598211294827    1.08540839778168
O           1.51289614390466    0.05321685587953    1.86337328380624
O           0.56241383592334   -1.85545892736647    3.02744940105876
O           1.49058290276167   -2.13647616241125    0.78708916466440
H           1.25764110473128   -1.83736171134586   -0.11171104425722
O           1.01469562917428   -1.21254082676784   -1.71052302356745
H           1.10973979564261   -1.87894056832808   -2.39201305069656
O          -0.57922502277113    2.34450767623216   -0.59508445942961
H          -1.00630388921265    3.18752132733413   -0.75011178517003
O          -2.73421856852468   -1.44239438394474   -0.31058925335201
H          -2.01196703379360   -1.26679421174890    0.32509648498907
H          -2.88829551185529   -2.38752549162544   -0.28296795818868
O          -1.23596286895063   -0.00905023945703   -2.02396322722844
H          -1.89615780339526   -0.51575804645121   -1.50616270709019
H          -1.13479610457344    0.83537415928516   -1.55684152953251
H           0.09896649534939   -0.79844015507408   -1.83967078839629
O          -0.86835483460606    1.56878466374126    1.87113913521276
H          -0.91903452394221    0.61232201089149    1.63757351691501
H          -0.05192732032558    1.63228381685709    2.37627118636124
H          -0.77650720609730    2.09648683089830    0.35505815789477
N           1.79974568724022    1.03878427267835   -0.43152348779187
H           2.68115342636987    1.52725680769169   -0.53968556500838
H           0.99263514659189    1.66870128263950   -0.59848396155521
H           1.73104399721843    0.23376461479713   -1.07399707284614
H           1.69744362738297    0.61901486322001    0.61350992426634
