    26
        -50.46212479  Gyration_radius:  2.51229021408 Dipole_moment: 6.142
 S           0.27342615909207    0.88776533362863    0.89034154771001
O           1.29375555255696    0.27018082795629    0.03681497476042
O           0.59784442761251    2.39423263014712    1.01421584083403
O          -1.03859573970892    0.79118869440041    0.21415429914635
O           0.22814237094187    0.32138046974128    2.20983464604911
O          -2.56135042923405   -1.04987954040867    1.43017403602504
H          -2.04107498829916   -0.27315550522496    1.13508813967129
H          -2.93245523768335   -0.80442117120973    2.27897075057952
O           2.63024248265732    1.55079273371811   -1.81850794696450
H           2.76874720176938    0.90919029938622   -2.51692949961668
H           2.24303442820566    1.05031117996955   -1.06324310978885
O           0.88093419766937   -2.29637422258776   -0.35448619586286
H          -0.41188681028384   -1.89032711207210   -0.91723025170969
H           1.25368846037032   -1.39267395595026   -0.24153743454571
O          -0.15878590848097   -2.31730646238376    2.05378868427235
H           0.61387367471001   -2.54228314219956    0.56837679835836
H           0.15210624224161   -1.41997158152581    2.28679052110901
H          -1.11140489608913   -2.19583999973756    1.91970899149500
O           0.65742173693684    3.28536321681295   -1.44407678470968
H           0.53031254971917    2.73423257347329    0.08634805918399
H           1.01628246568960    4.17374808934100   -1.38856590511394
H           1.40053811845979    2.70666390939525   -1.73254212292189
N          -1.36307482748840   -1.37147760267440   -1.14989157427789
H          -1.56934562530235   -1.33375722564283   -2.14153986526949
H          -1.22454257514929   -0.39189266192586   -0.73012100372454
H          -2.12783304089858   -1.79568977444243   -0.62593558467450
