    26
        -50.45549987  Gyration_radius:  2.44720461901 Dipole_moment: 8.159
 S           0.29706643461079    1.69729810554800    1.45567049580433
O           0.69081523143066    1.33460945635434    0.08789744839150
O           0.40859492946539    0.48948707951797    2.31396758996813
O           0.95283936148590    2.83521870884944    1.99370126921500
O          -1.25090212888567    2.00054265683764    1.35637572506317
H          -1.60307240972214    1.39316135584354    0.67907933507888
O           0.93494416392241   -2.25110834241035   -0.49373262080976
H           1.44075285255642   -2.99964891504104   -0.81161556402147
O          -2.28967551381103    0.20405506839798   -0.37872028036000
H          -3.09769073398420    0.49936719580877   -0.79996322542424
O           0.78195328433564    1.59855276481545   -2.54713184072174
H           0.48969207151355    2.48018984941729   -2.78181118676949
H           0.86721267993831    1.59158089001194   -1.57282273044052
O          -0.66451566500102   -0.64024033591593   -2.18385486354935
H          -0.04275548408658   -1.21555814548143   -1.71060425385881
H          -1.66176457950464   -0.07244330866985   -1.12432662982954
H          -0.13697097307514    0.13539891349949   -2.46794087506676
O           2.46535257116606   -0.47901640789423    0.64026607454948
H           1.92616444277153    0.28608894406081    0.33071697557154
H           2.35836815729938   -0.45552016644881    1.59611889563303
H           1.59665710911533   -1.60003680371014   -0.11780764775813
N          -0.91236611100027   -1.39924530039892    1.31031497174959
H          -1.65705781468197   -0.93829434887176    0.76396974756564
H          -0.28245118376283   -1.90223908315641    0.65754323354283
H          -0.31486803130998   -0.56948366351167    1.79364018312204
H          -1.29632268078669   -2.02271614745119    2.01106977335483
