    26
        -50.44057495  Gyration_radius:  2.46867908117 Dipole_moment: 6.445
 S          -0.56951750152134    1.84945532584563    0.19793710659258
O           0.10531063467346    2.56876081628564    1.24787301003473
O           0.24941735071026    1.80203508803513   -1.03739377426432
O          -1.00767209380218    0.52783794930085    0.56703355537444
O          -1.85427934360545    2.67553219526882   -0.19610207511940
H          -1.51220919082886    3.52934692603836   -0.44238788506313
O          -0.66785672145629   -1.88043683900874   -2.00252395098049
H          -0.59253466015504   -2.72136816106606   -2.45518933352790
O           1.74252135856270   -1.32736075097584    0.99899645624788
H           2.67728349787610   -1.45444573700516    1.16906454340214
O          -1.60955245829596    0.78410990954271   -2.88109458432917
H          -1.54816293546765   -0.14274853116020   -2.62979551906943
H          -1.03194624197722    1.26749858084602   -2.27831360270633
O          -0.96068947581652   -2.12986990212664    0.56525084769980
H          -1.18839447324921   -1.18717173183317    0.67460046206991
H          -0.92005150711779   -2.06839910551851   -1.05212048908080
H          -0.05097031648584   -2.19531593374910    0.88185858342559
O           1.30632520157478   -0.38798339115730   -1.34092051174369
H           1.48970972106942   -0.74410240223602   -0.39677246605730
H           0.55515008359980   -0.96413344928576   -1.72128918744409
H           0.87648412834838    0.60697778789334   -1.22831189104852
N           0.90496127192926    0.36741458141772    2.75675002145967
H           1.49876362419310    0.63653522929464    3.53211210515646
H           0.03321296760752    0.02035685733776    3.13805429318280
H           0.66732852386289    1.21502553812843    2.23200795077217
H           1.40736855576739   -0.64755082010011    1.70067634501196
