    26
        -50.44980286  Gyration_radius:  2.5921230381 Dipole_moment: 5.058
 S          -1.21948950919315   -1.54679039219892   -1.34074460189938
O          -1.95900210637253   -1.21456774096067   -0.12268155193338
O          -0.62436304380225   -0.36872679665117   -1.94130163481050
O          -0.28111241313541   -2.62940134647684   -1.12795935068773
O          -2.30051177884319   -2.09003498903068   -2.36621153927711
H          -2.95607832877274   -1.39893916580088   -2.41819944238290
O           1.49140712969125    2.92452196761986   -0.46087937143308
H           2.20604332317312    3.51575376883788   -0.22434394934122
O           1.47677032746224   -0.32254090393513    1.69035793809088
H           2.36359016772287   -0.36496176900628    2.05057520063489
O          -1.39895122945713    1.89880353063043   -0.71237842723033
H          -0.80479547210358    2.52028089522770   -1.14432280869678
H          -1.21517991513870    1.03627964498631   -1.12724180444050
O           1.73292459188163    0.23216683231271   -0.79688850137263
H           1.59127416557020   -0.12192678848469    0.69992329932738
H           0.94922980845098   -0.05509241686759   -1.30398794795168
H           1.72051825755218    1.21109939979022   -0.83222174214303
O          -0.00717507042356    2.13313873557399    1.60044795899105
H          -0.72593538201810    1.98679334817511    0.95199260506085
H           0.36122069776442    1.26270013836311    1.79976380009261
H           0.96732049991625    2.76903656228487    0.36345747256025
N          -0.25993658807607   -2.30155861426109    1.40695191421021
H          -0.44434041243560   -2.97931935187153    2.13769084523299
H          -1.12876244979117   -1.77779805390363    1.07089905393690
H           0.46992179867943   -1.58978533132001    1.67048155454573
H          -0.00458709831087   -2.72913114306134    0.47682102090026
