    26
        -50.44980287  Gyration_radius:  2.59212192488 Dipole_moment: 5.058
 S           1.48690811142019    1.08858368258912    1.51044755553522
O           1.60401740516925    1.30944576751739    0.08208050836098
O           0.10062440705496    1.21168381009804    1.96206911129333
O           2.09723820776927   -0.14522601240298    1.96109787464619
O           2.27828738108812    2.26308050352605    2.22427106052467
H           1.80229270667007    3.05573706731002    1.98927981400424
O          -0.81855148029120   -2.11443461742325   -0.03271433183935
H          -0.83745990901478   -3.01591835368698   -0.35672014323729
O          -0.56118112269530    0.04053347324333   -3.26697719810395
H          -0.82734542697529   -0.44235571736988   -4.04939599652972
O          -0.71592405934884    2.12904970745138   -1.01235364952985
H          -0.47628160689509    2.07561807097067   -1.94270997332904
H           0.09035982749897    1.88115173949747   -0.52420452458560
O          -2.33999454476270   -0.02328442939284   -1.27878153941015
H          -1.98610027215967   -0.71850909018663   -0.70910203485162
H          -1.94295496818548    0.81628394457295   -0.96890834622974
H          -1.32652624353919    0.01053872378792   -2.64110928141244
O           1.06131022257911   -0.92846527903022   -1.30516903446981
H           1.38825949240543   -0.15381220536703   -0.80830840769980
H          -0.05672318423268   -1.65928763697332   -0.52950579466081
H           0.62445424543861   -0.56082154278023   -2.10122857032054
N          -0.15783304299557   -1.27013128095635    2.38874818860064
H          -0.49881186213767   -1.73630123084296    1.50830069473072
H           0.89209406593281   -1.17577558635940    2.34456925986112
H          -0.38132353573502   -0.22731640231503    2.32051291041693
H          -0.49883482405279   -1.71006710547351    3.23581184823495
