    26
        -50.44980287  Gyration_radius:  2.59219954083 Dipole_moment: 5.057
 S          -0.93881080868028    2.16673064189551   -0.31983283839001
O           0.01221512740137    1.93194537378266    0.74934358785343
O          -0.47096949461899    1.60767819020139   -1.58850318266823
O          -2.28707620722674    1.74226972948148   -0.00378544896502
O          -1.00633483570113    3.73594253371230   -0.53950758045213
H          -0.13298358028800    3.97819713347504   -0.83722136990602
O          -0.92892192146643   -2.06558302078168   -0.10971206574002
H          -1.29493084083867   -2.85745302022939    0.28648980955124
O           2.27761463314213   -1.36247479858361    1.98654001594896
H           2.57368307874406   -2.13352281356513    2.47030722063953
O           2.30736032867499    0.84971986445772   -0.15227378415688
H           1.46770327327746    1.28877816797474    0.07583625790361
H           2.72347449182009    0.64352663143482    0.69044961130267
O           1.88229409061780   -1.78525702679910   -0.61848804374375
H           2.03635131613711   -0.82635927835547   -0.74221936297275
H           2.24533541527679   -1.62137068771152    1.03243772165325
H           0.92613033713605   -1.91537665269717   -0.66242891111536
O          -0.30475424851037   -0.51044252282554    1.82715246465152
H           0.62086563331187   -0.74753179783775    2.04332791701475
H          -0.27180488189411    0.42061159853377    1.53405824042831
H          -0.70352362673078   -1.44833538515193    0.66653434654957
N          -2.17973872487969   -0.26004335661047   -1.58900916615797
H          -1.37006918902442    0.36965766850709   -1.88899272350117
H          -2.80948426784953   -0.50889371533233   -2.34322358546074
H          -1.77753508366090   -1.09375445054575   -1.08706101512927
H          -2.59609001419847    0.40134100355070   -0.88021811514433
