    26
        -50.44980286  Gyration_radius:  2.59215709695 Dipole_moment: 5.058
 S          -2.07396332185269    1.09468841612151    0.42194831360358
O          -0.94598166222281    1.84085634115128   -0.10115115722983
O          -2.28195760135838   -0.15261890287401   -0.31414305098303
O          -2.01562394552182    0.87748995349147    1.85278468963713
O          -3.36858534443843    1.97178629951920    0.15753264611468
H          -3.43916823956476    2.02188057480884   -0.79251040695743
O           1.13000984847155   -1.57318656885257    1.17887443594096
H           1.82498089968989   -1.85545757384682    1.77497367533975
O           2.93555112288677    0.83142510926271   -1.29659795441966
H           3.88486261098185    0.70889632119842   -1.29705789128076
O           0.04558011980063    0.73968866122650   -2.34966454044260
H          -0.40998375068843    1.09663354426745   -1.56551818290997
H           0.84102421350211    1.27247053987187   -2.44598220684703
O           1.37565139936885    0.96422224251431    0.93255994319176
H           1.98139157634745    1.07907243839238    0.17122974288438
H           0.53308452378120    1.37413151630623    0.65703515678200
H           1.22460133470618   -0.56331415914289    1.10434751042064
O           1.53823789561701   -1.41317759965987   -1.65800017710662
H           2.53616083807091   -0.04619273420262   -1.51709543323295
H           1.29332121924919   -1.65011123269156   -0.75411848997538
H           0.81743487559440   -0.84536440875261   -1.99943197941154
N          -1.48481224290627   -1.60968681794673    1.59633873954046
H          -1.85864948851769   -1.31032953264126    0.64101033697448
H          -0.44428919921916   -1.74754169921251    1.51218311129017
H          -1.67278177024846   -0.69893340595036    2.09476504403663
H          -1.96609589151993   -2.40732732234488    1.99568812503997
