    26
        -50.44057486  Gyration_radius:  2.4689183675 Dipole_moment: 6.446
 S          -0.99074052018300    1.62271265845950    0.41133802773244
O          -1.45778331533123    1.18338355791994   -0.92572787274844
O          -2.01772529484182    1.45484166038041    1.40743123702823
O           0.26577449246513    0.99962509266742    0.73962215255580
O          -0.72102193513832    3.16957413277703    0.26070933141508
H          -1.57219774096795    3.52995529093113    0.03185566663710
O          -0.22943316384840   -2.30690691422378    0.64881310228947
H          -0.77057641838706   -3.09761972957369    0.67830236889401
O           1.91654007894838   -0.47017624053099   -2.02464273038903
H           2.50493135917023   -1.01952149276261   -2.54405897263038
O           0.61419178630234    2.13134587736902   -2.56829941457238
H          -0.15436532964419    1.94420738639468   -2.01607974349792
H           1.24827486860616    1.42807425886774   -2.39698761693979
O          -0.53986901466784   -1.00618139580632   -1.53263451270973
H           0.40578953579164   -0.78843907023436   -1.84753039235108
H          -0.43630322600156   -1.52114336799700   -0.65170252143491
H          -0.98993102017154   -0.04414422006474   -1.28873518825474
O           2.19891558309239   -0.81308016425219    0.53361354983105
H           2.18833149338787   -0.55644833220434   -1.06502276716570
H           1.65105679548222   -0.03301212935543    0.74293417827952
H           1.62339571151069   -1.56643149203631    0.71622316860284
N          -0.98892292069091   -0.83008369334016    2.62507996357876
H          -1.43471180556057   -0.01004330209068    2.20193398470707
H          -0.53431374407578   -1.71447584994793    1.43812444083986
H          -0.16140860390314   -0.48661084027361    3.09736659532295
H          -1.61789764134901   -1.19940168106851    3.32807397498077
