    26
        -50.44334440  Gyration_radius:  2.72009573994 Dipole_moment: 4.404
 S          -1.96918148101646    1.52651800955167   -1.69218164626623
O          -1.69654919161450    2.46001353908686   -0.61440312829383
O          -0.76902082343425    1.33332211895869   -2.52709796789648
O          -2.53237943536185    0.27408150511933   -1.25101059961811
O          -3.03345478273577    2.21186465081674   -2.63699564953607
H          -2.62791898214181    3.05334528883282   -2.82218253946258
O           0.90892023657998    0.29744358409073   -1.05391417813074
H           0.27788146462447    0.74435305541791   -1.78966575691259
O          -0.23837579532079   -0.24626845343831    2.28311738133151
H          -0.52410931334364   -0.42898709180179    3.17815580346762
O           1.42444658301126   -2.95108875337160   -0.33298550957028
H           0.49897937787926   -2.66912861896358   -0.29090963580095
H           1.68051717808053   -2.90027010619736   -1.25544480991565
O          -0.82270237633760   -1.32324373079896   -0.13783883060551
H           0.32336784298387   -0.47700955342413   -0.70244630018614
H          -0.83446585199190   -1.03564265583117    0.79585825098102
H          -1.57892125212890   -0.85417563796419   -0.57264188732562
O           0.43657419529665    1.92298692545434    0.77513230121992
H           0.10809554781821    1.32811103757436    1.47487522190078
H           0.87102281489978    1.01396334935741   -0.26520752379100
H          -0.37190836657959    2.28186505345553    0.32852826092696
N           2.20203309156302   -1.14052163015772    1.82190479865539
H           2.06548895420235   -1.84990974904275    1.10081538977230
H           2.72650479245376   -1.56682531877810    2.57512538915704
H           2.77354526978613   -0.40582017199227    1.42298900114366
H           0.70161029287814   -0.59897666596923    2.18842415474424
