    26
        -50.44683690  Gyration_radius:  2.4678690799 Dipole_moment: 3.588
 S          -0.09627253415861    1.51595564383694    1.29780610058693
O          -0.79474687593278    1.46685430552262    2.54861568942374
O           1.30149297318436    1.07303224833529    1.40228803817690
O          -0.74783647572650    0.85673605838253    0.18549018886669
O          -0.02029001414505    3.05547693839720    0.87303957026605
H           0.00168067533596    3.52152927732787    1.70362787309159
O           0.72960513353914   -2.35640978163765    0.07992065671108
H           1.30652837327357   -3.05263284590277    0.39819996140874
O           1.18811429606256    0.89636161574956   -2.64010672616738
H           1.45051510863846    1.81847526187259   -2.65208950863836
O          -1.75144781876723   -1.41336762420604   -1.05164348768426
H          -1.52882918357133   -0.67798348360794   -0.46113417064986
H          -1.00498266596019   -2.01714321965586   -0.99247413701132
O          -1.39342730381277    0.99604265693518   -2.41519418802436
H          -1.73908113186861    0.09015470774579   -2.38489124723615
H          -1.32066939076335    1.24093359431507   -1.47633553008449
H           0.18362093904046    0.89630096267252   -2.64737628693154
O           2.02852532130589   -0.24107270393384   -0.54429351493288
H           1.67306585296780    0.20834894936164   -1.41193780205536
H           1.75302450360186    0.37026646371731    0.28970495278937
H           1.51588598285674   -1.11025918448317   -0.39484733264889
N          -0.57961685742985   -1.40094663910589    2.14881200783791
H           0.22482700570781   -2.00069439799428    0.88515918649736
H          -1.56431476309096   -1.60695370146617    2.02018358333175
H          -0.31753785477476   -1.74303022107747    3.06613904982847
H          -0.49783328551433   -0.38597486109713    2.17333707323807
