    26
        -50.45582922  Gyration_radius:  2.45831203658 Dipole_moment: 2.256
 S          -0.90248889062225   -1.56278222978405   -0.83629036792359
O          -1.73489925610661   -1.00291786898040    0.19978817262317
O          -0.54165506945591   -0.61498212573505   -1.87538289431930
O           0.28236853228915   -2.24139442837537   -0.30704478816222
O          -1.75890651680754   -2.69120421286841   -1.54367556820368
H          -1.14305166853683   -3.02511293770642   -2.18757192045902
O          -0.08434761133567    2.40427736516327    0.54253597227453
H          -0.13066097811711    3.33928460547758    0.74414525740215
O           1.25135476950356   -1.47074804274143    1.85344544023685
H           0.82723714091180   -1.89612409878799    1.00383165817956
O           1.56013768554724    0.80802717859996   -0.99475815366918
H           0.86716788352140    0.25018279765233   -1.39800880537793
H           1.08648856269017    1.48999878628570   -0.49012853665319
O           3.18129251096879   -0.34299127555414    0.67440672895619
H           2.10323130720358   -1.00937023108148    1.48672329009187
H           3.70025250421698   -0.97705250829539    0.17649809620416
H           2.62622468338950    0.14848088239114    0.00215545436291
O          -0.51099144884793    0.27090930592518    2.14745952663001
H           0.56148735330752   -0.70587662920605    2.10691820288357
H          -0.26473545111916    1.10515663461794    1.69776004372080
H          -1.12559658267896   -0.18039708411046    1.52516758859122
N          -2.07436256716020    1.60046016756169   -0.97668912273231
H          -2.59055901326810    2.13687509061809   -1.66296527093203
H          -2.73995377629177    1.12163295165748   -0.38091767978221
H          -1.56818254071335    0.86172806482580   -1.46693073123885
H          -0.87685157248703    2.18393985245018   -0.04047158270275
