    26
        -50.44683691  Gyration_radius:  2.46785746066 Dipole_moment: 3.585
 S          -1.07392039007313   -0.69267810544363   -1.53621316827051
O          -1.82854919831614    0.49351012461705   -1.10706433042928
O          -0.65987081535040   -0.62798068541863   -2.90701831000404
O          -0.03304661097463   -0.99708289590736   -0.57686281394395
O          -2.10286766577493   -1.91104573648331   -1.42295503236194
H          -2.51873528747632   -1.94070228482403   -2.27955326522081
O          -1.18633165873629   -0.87744535836355    2.64758497702523
H          -1.99017297725598   -1.39258984644464    2.55951753599697
O           1.01010457301645    2.16399996096630    0.62145340899761
H           1.00865589422099    3.12230039568243    0.64439192986094
O           2.34956223628822   -0.39078955367351    0.70631338327754
H           2.18907967014850    0.50914513118408    1.00561784463377
H           1.63299597212135   -0.58088721652595    0.08225693027860
O          -1.28575445870718    1.18525662878941    1.18901706698174
H          -1.22509154648293    0.34226355928894    1.79473953616500
H          -0.34638756612079    1.56220557049250    1.06155008867825
H          -1.57694759053277    0.87522165244289    0.20718368742613
O           0.63609033222987   -2.40173141196410    1.60867861270667
H           0.31755541931361   -2.20231777928120    0.71114068973413
H           1.48927755719533   -1.94216901326082    1.65144317563015
H          -0.44098168666472   -1.47611541216243    2.33903157113513
N           1.12401272504117    1.42924459028642   -1.89924875692525
H           1.05736820481768    2.15695591727429   -2.60150883145895
H           2.00418806264714    0.94743445622257   -2.04681704912471
H           1.06158067950262    1.89252939023096   -0.35499729169735
H           0.38818609592613    0.75346792225365   -2.09768159909469
