    26
        -50.44683689  Gyration_radius:  2.46788834009 Dipole_moment: 3.588
 S          -0.22456566557311    1.98363088021860    0.08315630368571
O          -0.77965045802964    2.68857019036951    1.20110989226065
O           1.23141565437117    1.80653945813416    0.18068549708732
O          -0.86019156398807    0.72547626824165   -0.24753877620448
O          -0.45207809852047    2.90688607972047   -1.20216842482846
H          -0.42875052963481    3.79354828370059   -0.85451650097755
O           1.12150414282832   -1.71459304590092    1.37546053802396
H           1.83591434959380   -2.00967916823940    1.94242939899960
O           0.75710021182096   -0.89815034257956   -2.79382409192243
H           0.85750963351025   -0.17723871442019   -3.41790129154952
O          -1.58133601431718   -1.87798986880700    0.37908142857705
H          -1.42985153477243   -0.92161526869369    0.34063615829186
H          -0.74131670486091   -2.25366787680577    0.65927320697593
O          -1.76982513177123   -0.85910307941733   -2.21269320920839
H          -0.22883458371762   -0.97284476398901   -2.61644925390441
H          -1.95258713660517   -1.56217801038631   -1.56977593210348
H          -1.64863499545075   -0.07056275501235   -1.65569500755778
O           1.97753653492259   -0.38796314821684   -0.63918833092841
H           1.68494972755246    0.59198946926625   -0.32426874634870
H           1.63612528126713   -0.99925575198832    0.10273934004513
H           1.46860625584449   -0.61610364010143   -1.51678711184296
N          -0.12243282323999    0.24006388552236    2.61606765077217
H          -1.06586798302099   -0.06906029425698    2.82344457920654
H           0.64474952752063   -0.96592927065207    1.86735966490605
H          -0.21157539984935    1.04372986514051    1.99666387260848
H           0.28208731411376    0.57550059915398    3.48269912593646
