    26
        -50.44582832  Gyration_radius:  2.56331829313 Dipole_moment: 2.749
 S           1.42929180628152   -2.21819931006019   -0.23939945897982
O           1.63343006589421   -1.59349540821885   -1.51506518131834
O           2.28055135136595   -1.54655139929807    0.82238909375514
O           0.07247041183542   -2.35769807287129    0.18679651738729
O           2.06912272392031   -3.65366081865234   -0.30784138984558
H           2.89672168857963   -3.51918622094142   -0.76147881508324
O          -1.34635488243223   -0.42077543590647    1.76260354816081
H          -1.18706307994472   -1.35508558365268    1.92195495454893
O           0.67461613529620    2.30465305306899   -0.21849202984342
H           1.01542482365522    3.19685787527085   -0.14736955094955
O           0.13176547052272    0.53510975748879   -2.31386890454596
H           0.73368756108593   -0.22033808777334   -2.21078772984050
H           0.47116872756725    1.22511853403842   -1.72513963103258
O          -1.80838449485993   -0.58917230320126   -0.87134937528922
H          -1.40422522567352   -1.45942874510174   -0.76149534581112
H          -1.59866560191423   -0.38489708750081    0.80931373152196
H          -1.20277564225758   -0.12090042138278   -1.49377685741420
O           1.12109747857959    0.45270507957477    1.65599260426768
H           1.79660430287522   -0.65186519242594    1.21480162625603
H           1.09011949811595    1.13189220809220    0.94419256438042
H           0.17514600236002    0.16117152944457    1.78614975795113
N          -1.92186264773350    2.25322618042278    0.32040795885767
H          -2.25510900295280    1.52454797513433   -0.30293957811442
H          -0.31304072981909    2.34874359536483   -0.03426713053605
H          -2.52801375217394    3.05660744257529    0.21349452324677
H          -2.02572296817168    1.90062086651722    1.26517408827887
