    26
        -50.45476230  Gyration_radius:  2.60307915288 Dipole_moment: 5.754
 S           1.90601938552520    0.02004014706074    1.80785170216548
O           1.82181178646962    0.95548408896169    0.71197689098230
O           0.83105003452778    0.11877232126654    2.77295308457230
O           2.05847149865241   -1.35224051087594    1.29943512933796
O           3.24057665524978    0.34421169131175    2.60652744568093
H           3.07338051495096   -0.06955329879719    3.44771044453682
O          -1.70708780342497   -1.55956960884972    0.07409666068902
H          -1.95245902687627   -2.27913942962728    0.65626906247191
O          -0.00686828303652    0.63265518061522   -2.63440414508355
H           0.05903657177879    1.04374223875597   -3.49624478211349
O          -0.27417575485357    2.22484782717919   -0.28471151769190
H          -0.15278754131449    1.88524716593822   -1.18182494703195
H           0.55920099131857    1.98076998523223    0.16362332100132
O          -2.49827346336124    0.34472489427663   -1.77168120773173
H          -2.44034423909780   -0.44153653589392   -1.20587674457716
H          -0.96841708322642    0.49067109171142   -2.45320516393056
H          -2.57849110423513    1.09242000926762   -1.17131329438026
O          -1.42569606276761    0.54481257564657    1.46612931833053
H          -1.62412868268355   -0.73428774610284    0.67431311314113
H          -0.66079623233830    0.40109671063510    2.06608474603111
H          -1.12965515429419    1.26211467926876    0.86354680732130
N           0.78025450533404   -1.38412977001401   -0.90379774395125
H           0.80854223604873   -0.49220703687385   -1.41780191735603
H          -0.20870696208840   -1.54740230025581   -0.58132200375022
H           1.09266109663565   -2.13848691720628   -1.50676463041626
H           1.39688209709801   -1.34305744259179   -0.00156962826027
