    26
        -50.46798297  Gyration_radius:  2.54892314531 Dipole_moment: 6.424
 S          -0.13441020628788   -0.64883859644083   -0.88890633479647
O          -1.48632439760772   -0.27824145606600   -0.47560185397109
O          -0.10611216123027   -1.63219824360317   -1.93629011535449
O           0.49360484467494    0.68934943971779   -1.42703736852049
O           0.67411716251449   -1.02349946635758    0.27882201049706
O          -2.42784239180721    2.05093711498577    0.21469384690925
H          -3.35170294500646    2.03398515953053   -0.04008831398620
H          -2.02959139830945    1.23745603652612   -0.18316977721045
O           2.13900254153014   -2.34272175116176   -3.11692540624018
H           1.99935483502336   -2.20251049629786   -4.05480796270161
H           1.25879623898405   -2.22540657775016   -2.69431421352759
O           1.13216679236479    1.31546743915555    1.31211884007469
H           1.04576470909886    0.38319159391042    0.98558331845147
H           1.15939374904173    1.84806241499917    0.51177302136745
O          -1.50180474045772   -1.21786827329927    1.96683854663271
H          -1.68900622302778   -0.98901030314180    1.02758529471448
H          -0.61175692209526   -1.58736871031461    1.91664854247270
O           2.79448876433968   -0.44042810665053   -1.36261128379715
H           1.44465002871930    0.41033484789576   -1.54578040267702
H           2.45900636277718   -0.89295552491593   -0.57622395215186
H           2.78475414151949   -1.12199907763255   -2.07005478207278
N          -1.22190737441719    1.34693596995604    2.46972708034562
H          -0.22004385378947    1.46086582587639    2.12776491924866
H          -1.37373522962654    1.76414980813627    3.38049884972478
H          -1.82955714275717    1.76657284524383    1.72228500997347
H          -1.40130516419825    0.29573808770539    2.45747248658850
