    26
        -50.44091415  Gyration_radius:  2.70616038376 Dipole_moment: 1.943
 S          -2.01774189451543    1.21768517315265    1.62007808799928
O          -2.62396079926548    1.31116298710028    0.22707742213255
O          -2.00659996454312   -0.14530845954905    2.07653355585902
O          -0.78687888302482    1.93457715833052    1.69831043194110
O          -3.08554702863807    1.99308857194391    2.47806077711465
H          -3.83024041260377    1.40076953118553    2.55102184787024
O           0.12743870985401   -0.99911276358334    0.72078115654356
H          -0.60132818389817   -0.98026278740390    1.36081125401755
O           1.00356650450775    1.77310079786759   -1.71986602341738
H           0.89099806383824    2.71614603797998   -1.84049615500276
O           2.37591682517722   -0.81278279690673   -1.64394728856961
H           1.89769658358170   -0.08383293756378   -2.05460869001896
H           2.75621208834241   -0.44679752078476   -0.84117623176514
O          -1.06908139469728    0.16224253932358   -1.29697697952618
H          -1.98327699760474    0.81943938586947   -0.49910347684175
H          -0.39635138469133    0.81238261444819   -1.60902701965988
H          -0.58454768180581   -0.38598665971394   -0.62253363424485
O           1.66917912917126    1.21892950616165    0.76343597452558
H           0.99564525206099    1.72262401111467    1.24544035740373
H           1.32863533250603    0.30681808807590    0.81396165730083
H           1.33489059221748    1.64462978827103   -0.78877824705367
N           0.93781985742694   -3.18089576540884   -0.56711734945532
H           1.51331873304334   -2.54727305707019   -1.12147725699052
H           0.33206194736009   -1.92728211376063    0.43655253957444
H           0.27908168980824   -3.62409701911957   -1.19491987099228
H           1.54309331832789   -3.89996432011661   -0.19203683632131
