    26
        -50.44091478  Gyration_radius:  2.7067402044 Dipole_moment: 1.934
 S           1.12817503720634    2.50052690911023   -0.81036318349389
O           0.72969333586465    1.90182338855428   -2.05496175297155
O          -0.09099101771587    2.94488612576634   -0.01479252097560
O           2.03447245871652    1.75694453945545    0.00262423369759
O           1.80176548051695    3.88285321389061   -1.14675983365650
H           1.25451640856746    4.27251852897986   -1.82456487947467
O           0.03023944441493   -0.49919006135293   -1.12650445563264
H           0.25198473169999    0.20902251859833   -1.75124505226277
O           0.04441159972607   -0.21062910331734    2.65524273748884
H           0.42925217271394    0.32227105184852    3.35133215725730
O          -0.78047398382032   -2.63114724357632    1.21733634433078
H           0.16568926510855   -2.70400632566594    1.06684238906372
H          -0.88309738919635   -1.91043147045383    1.84863756229395
O          -1.29342373438851    0.90016656856195    0.64430447184186
H          -0.92064414912282    0.58043880447371    1.49971464942749
H          -0.67016085365500    2.08423532396889    0.30776925666373
H          -0.90947742208693    0.28322394246110   -0.03543523077401
O           1.84860992672346   -0.82705338980649    0.84269190642283
H           2.24041309018387    0.04437614316000    0.67942060638598
H           0.79430107270274   -0.47613001451103    2.05496927538329
H           1.25871671381661   -0.94151769253317    0.07466205182167
N          -1.79362668341396   -2.38436886366882   -1.56654330997175
H          -2.75770745996080   -2.09178431530654   -1.66449930364658
H          -0.60390038904329   -1.14839312340412   -1.52737968445527
H          -1.64811334064940   -2.64494144052607   -0.59138251354513
H          -1.66062430496405   -3.21369399476703   -2.13111591037398
