    26
        -50.44091502  Gyration_radius:  2.70718112388 Dipole_moment: 1.918
 S           2.26839976749112   -1.72350394005355   -0.26237518624168
O           1.63010994668494   -1.83288193601062   -1.63960466746657
O           2.86243768769422   -0.42715172651859   -0.08107026612199
O           1.37935557226968   -2.17459249374662    0.75810377167245
O           3.44134821558135   -2.76694976300752   -0.37840916661136
H           4.09663158949740   -2.34969361168314   -0.93266417025927
O          -2.24631702681286   -1.39966920666952   -0.27982166244860
H          -2.43103490665352   -2.33637702095207   -0.35136024133231
O           0.63857035838622    0.94388812832997    0.45450663631687
H           1.58128246645444    0.73328958532662    0.36562140399754
O          -2.60148604471825    1.39149464243778    0.56271005296911
H          -2.73131332537693    0.63005804064044   -0.01328472845805
H          -2.32908530070984    1.02616141989169    1.40870949305299
O          -0.27764201083883   -0.27741114235112   -1.66903628577651
H           0.00548451597635    0.30860290526062   -0.91632871247745
H           0.77564607665668   -1.16548592554533   -1.71971882070836
H          -1.07040250922559   -0.75097908261529   -1.32186785540883
O          -0.76907284034989   -0.89729945255188    1.83878639364279
H          -1.76041664071768   -1.27226038832163    0.58078619312159
H          -0.07596255509723   -1.56646646768687    1.73217567594464
H          -0.32936693723968   -0.08525864270213    1.52487908397221
N          -0.42385861318349    3.34686227863089    0.04318027741137
H          -0.38246509465598    3.73004509783082   -0.89275088325748
H           0.47317511823791    1.91605680005203    0.34526290084019
H          -0.39876884322896    4.11850231610830    0.69746315644384
H          -1.32524864595753    2.88101957579986    0.14610761657650
