    26
        -50.45276042  Gyration_radius:  2.54798296912 Dipole_moment: 4.933
 S          -0.98342434580738   -2.51063490025284   -0.18504626678980
O          -0.17544357222876   -2.83775952908209    0.96866232576654
O          -2.26101081495732   -1.90405972645770    0.20206616625481
O          -0.29093854915395   -1.69982709689656   -1.17259830929931
O          -1.33895860233698   -3.87242145929749   -0.90400906035429
H          -1.63604463537714   -4.42232435051949   -0.18541017907756
O           1.28361987140117    2.11174081401634   -1.29201836414321
H           1.64317805197320    2.89135970394873   -1.71560363554052
O          -1.59948762829509    0.42260654889490    0.72276847580053
H          -2.02763515374939   -0.52390804620389    0.57655341188679
O           2.05420104327943   -0.47387498810864   -0.60409191894784
H           1.36401605438978   -1.05497277523743   -0.97139852841128
H           1.94888821555463    0.38850295984547   -1.03289135462448
O           0.60901957664409   -0.41297642528659    1.57716110311348
H           0.37912734370629   -1.36977297846994    1.58774181593332
H           1.28444934831178   -0.36525462971042    0.84509536144494
H          -0.65555831706080    0.16773675851221    1.12940460089918
O          -1.03873662534021    0.79519880794370   -1.68865138524811
H          -0.19823424406355    1.29408519181933   -1.72116986203449
H          -0.80378779737837   -0.15458624691373   -1.75969837486295
H          -1.42552341845317    0.72421268676308   -0.27299864338830
N           0.74937404981954    2.60280976844381    1.28933636097661
H           1.11753664972379    2.34214005540677   -0.33467840382530
H           0.94598637316070    1.72664005253951    1.76264286648997
H           1.28791997932086    3.32717135519370    1.74763191331592
H          -0.23253285307915    2.80816846910581    1.43119989467756
