    26
        -50.45276054  Gyration_radius:  2.5481270492 Dipole_moment: 4.932
 S          -0.82173295178164    1.96558063806163    1.66349973749449
O          -2.17024941247256    1.67158340971573    1.23239533260809
O          -0.38752965204383    1.06641815722307    2.73729254684607
O           0.14429365007188    1.99849405508880    0.57823382543431
O          -0.83857357132847    3.41935752132761    2.28301742771982
H          -1.58739954455333    3.39238174600684    2.87085759299973
O           0.18164922411387   -0.99584665438071    1.49433069769543
H          -0.04852655539194   -0.21861343245178    2.16040473512760
O           1.68066909978944   -0.73951352699829   -2.09963219874016
H           2.29694485045248   -1.06050331317576   -2.75814718787314
O          -0.45381334036624    1.03463275380596   -1.87961144840876
H           0.36463650434234    0.58165698594062   -2.13181609344807
H          -0.23373198253955    1.61116560623034   -1.12590777741963
O          -1.66078814573273   -0.50220787253233   -0.13857294417243
H          -0.58603566100503   -0.89045439383785    0.77222077864402
H          -2.08604902622875    0.22108016849061    0.37573345573012
H          -1.28403790863262   -0.01262789132949   -0.92139715937719
O           2.08923330613883    0.19935400756425    0.39765102544278
H           1.06451072600601   -0.62910714133085    1.04931005731065
H           2.09170668742224   -0.05519402236540   -0.54656878022797
H           1.57662505361228    1.03324614318921    0.46182448839817
N           0.07617608172464   -2.71915559711919   -1.26449962222780
H           1.09985828468540   -1.50749768217131   -1.83505771739790
H          -0.81514341103194   -2.26807251539093   -1.08441764308634
H          -0.09112889473446   -3.48587588475621   -1.90390529125509
H           0.39843656949633   -3.11028125479607   -0.38723783783691
