    26
        -50.44986074  Gyration_radius:  2.52935240403 Dipole_moment: 6.791
 S           1.94787060879177   -1.28382021423077    1.35214207355511
O           2.60386596242774    0.01439452188994    1.34685213953689
O           0.51788623255680   -1.13004498640695    1.69669993750452
O           2.13367416675313   -2.05731278064202    0.15886266099633
O           2.59685338504183   -2.07167746946428    2.56192370195303
H           2.96874254195385   -1.36070948441248    3.07382604971276
O          -2.55898480517634    0.84065427082889    0.02403491355211
H          -3.31830133305533    1.41485064176029    0.12911183793612
O           1.25177371544900    1.39986976204305   -0.35225816149632
H           1.97337664684563    1.02163467745514    0.21465600115578
O          -1.44333434904319   -1.77812030434557   -0.07511743395822
H          -0.80800508182768   -1.77167200542154    0.66245647370297
H          -2.07328002161440   -1.06709929810764    0.09215557358422
O          -0.41397843455506    1.16895131430702    1.43534265666027
H           0.31192809458009    1.42114264179374    0.60988073581843
H          -1.30478168691348    1.03972169464114    0.98135610584054
H          -0.05727470579368    0.22396370898951    1.67983277791395
O           0.55199145403822   -0.80535206760863   -1.55922258973538
H           0.98464448805117    0.62828179125307   -0.93393451766768
H           1.26125990577284   -1.34795653280619   -1.16134763068183
H          -0.26159631832767   -1.21147175633972   -1.17901368212597
N          -1.34213049729539    1.38617248682336   -2.24931577788044
H          -2.15263557830927    1.04006747000276   -0.88098271820645
H          -0.74923985539424    0.57493703656724   -2.40214012859143
H          -1.89341241441935    1.52665379421477   -3.08651727689667
H          -0.72691210054282    2.18394107722336   -2.13928371220824
