    26
        -50.46214871  Gyration_radius:  2.4551276305 Dipole_moment: 8.525
 S           1.44879016167647   -0.85203872766972   -1.32162500759752
O           1.21350072783486   -0.85885210851443    0.12703641800914
O           0.23021531013314   -0.42994292710687   -2.02373969208846
O           2.59737173501209   -0.06520849907576   -1.67949648354519
O           1.71709572123738   -2.33223769996037   -1.76068432227425
H           0.92417369268542   -2.80970996873102   -1.48406835687204
O           0.02333501694742    2.51649183987414    0.69625893801382
H           0.08077007523258    3.47302124148914    0.68799780453922
O          -2.44136414209963   -0.88765757180290    1.01134230043478
H          -3.15643574642975   -1.02102948900640    1.63412283883275
O          -0.54232795037556   -2.80027384166280   -0.24244575013123
H          -1.41198672028265   -2.44052703798688   -0.03744303193010
H           0.08933453839745   -2.14960996813792    0.11108211556234
O          -0.27361699203990    0.07747324207875    2.12509402678004
H           0.36533507233241   -0.31872548750443    1.49941374671892
H          -0.23490729989734    1.02566110632625    1.94695161284527
H          -1.64317276414560   -0.62539164936046    1.54706076971380
O           2.45286179569151    1.67710992051959    0.27549935362813
H           0.95107271233793    2.19177038726765    0.50084735158842
H           2.66329851156594    1.07425228210850    0.99357835802408
H           2.56687275968283    1.12870943155303   -0.53555771659119
N          -1.55302208976321    0.90429506725010   -0.81223859810945
H          -1.03176024610352    1.60808574955827   -0.24671985778398
H          -0.79378545804268    0.31614098194107   -1.34815064549073
H          -2.06547950731671    0.25163633714105   -0.18589750020346
H          -2.17616891427187    1.34655739941253   -1.47821866207294
