    26
        -50.45634901  Gyration_radius:  2.66545956305 Dipole_moment: 5.749
 S           1.71802504470037   -1.21753698585580   -1.70561359622868
O           1.65551314050661   -2.47718662255988   -0.99583076449309
O           0.43734221431654   -0.70248756741257   -2.13167930030169
O           2.48184338149808   -0.20402742509640   -0.96731933404258
O           2.55766399388314   -1.51103568732104   -3.02847555465546
H           3.17323906016828   -2.17293626898301   -2.72890693870938
O           0.35023007035246    0.27905720223191    2.29358585052734
H           0.96924228788744   -0.06522863488197    2.93861434501257
O          -2.59957453386120   -0.21615747355059   -0.00697083999889
H          -3.35678766696067   -0.79732616608073   -0.08254609657738
O          -1.02530662509251    1.40327919785529   -1.55651847337886
H          -0.54239663090253    0.67647763551868   -2.00643052314279
H          -1.73533067974115    0.94061195074175   -1.08033610276373
O          -2.32592816342042    0.82876078439367    2.47237715543689
H          -2.40724214980222    1.78211356606410    2.52689488828678
H          -2.58881716624001    0.11721011783592    0.91549380484234
H          -1.37750133834759    0.61988930891193    2.56614560247743
O          -0.20944986029754   -1.61431927342470    0.64830895662314
H           0.47470667054918   -1.99675043046065    0.05745402594349
H           0.14894372003002   -0.49572623701129    1.67779370215702
H          -0.92530522669139   -1.29198625736031    0.08159434079313
N           1.02626991492162    1.65604576265906    0.03920135418670
H           0.14246079935680    1.67230248632556   -0.57158930579125
H           1.67620058310621    0.91677605745925   -0.40974964568026
H           1.48256184974271    2.56038549052406    0.06473548946039
H           0.79939732033740    1.30979547946020    0.98976696001725
