    26
        -50.45634885  Gyration_radius:  2.66554270964 Dipole_moment: 5.716
 S          -0.88105306416652    1.84674895144086   -1.77605066357482
O           0.41594765382301    2.48332144610052   -1.86394600735879
O          -0.87543484219479    0.43024355127346   -2.06077793089582
O          -1.55143470447717    2.13217602205239   -0.50142096378144
O          -1.77535202613551    2.53842546052626   -2.89933177708166
H          -1.42856085499358    3.42518694672932   -2.90714821448365
O           1.33360181390405   -2.17517954855029   -0.54953025591833
H           2.04395701174376   -2.57650751356559   -1.05060622344502
O           0.91052064253518    0.48282159219246    2.09004836497657
H           1.22119025639137    1.27212639068586    2.53533101425842
O          -1.36863879120704   -1.75878171201281   -0.69312390555364
H          -1.32703336393807   -1.05534784038285   -1.37671505150885
H          -0.45909559156490   -2.10108992549761   -0.66728501940718
O           1.84519144642576   -2.09050429710781    2.10556274411652
H           1.61055876296055   -1.15078808948764    2.22250301408474
H           1.24753637900513   -2.59700081651702    2.65756843737319
H           1.60379979697705   -2.19724044875383    0.39306696182262
O           1.59128123129344    0.65577473282347   -0.38067741133986
H           1.20822540664818    0.58418414734457    1.12956042668633
H           1.37272257725570   -0.19269027721131   -0.79258763085039
H           1.21325152577378    1.35842653716768   -0.95283117426401
N          -1.60411982717876    0.12490808218105    1.09953257349951
H          -0.73088008466011    0.21916083195707    1.65094638693881
H          -1.64336365321690    0.97845629037311    0.43662515746194
H          -1.54776827468016   -0.73567609819759    0.45836891797322
H          -2.42504939627401    0.09884559441651    1.69291822027789
