    26
        -50.46214877  Gyration_radius:  2.45505701132 Dipole_moment: 8.525
 S           0.54738987486240   -1.11796718259030    1.73774606517332
O           1.62332629467204   -1.07254884733189    0.73957495004996
O          -0.48474465785917   -0.12898747614615    1.40492442875901
O          -0.00067195142849   -2.43638477696090    1.90479954359591
O           1.19283670162632   -0.68337335518951    3.09794030472236
H           1.52727322404150    0.20700696942555    2.92841273416808
O          -1.31016516404043   -1.04500799417479   -2.00293182252834
H          -1.61425746162302   -1.63114869721292   -2.69743520770639
O           0.73508667761707    2.49923184759955   -0.99123248396240
H           0.65222105131254    3.35074296860414   -1.42144568699474
O           1.30205562392731    1.77074932808773    1.83589030362575
H           1.49051958332259    2.18206099099840    0.98556823423670
H           0.49680000140296    1.24429573087613    1.68827890513792
O          -2.00184276920255   -2.20124705416405    0.22608817668439
H          -1.54549490801330   -1.50447948755220   -1.14395845397008
H          -1.25173269236447   -2.42935188574241    0.82345435533859
H          -2.50688543955222   -1.55434471358181    0.72593789036995
O          -1.57638324693637    1.35999346303661   -0.51099063509985
H          -1.29495971420543    0.85300783779835    0.27674517525912
H          -0.18885276575037    2.20691280758149   -0.75944553373779
H          -1.73453900419315    0.69107039973874   -1.18905523416298
N           1.19659168576009   -0.10517399140430   -1.56482136017067
H           1.40031136331418   -0.51768285825245   -0.56592044740705
H           1.15744690646931    0.92948394643563   -1.47049857939112
H           1.92476684334820   -0.39241872023260   -2.20879680667392
H           0.26390393349489   -0.47443924964727   -1.84882882531137
