    26
        -50.45476188  Gyration_radius:  2.60431198055 Dipole_moment: 5.809
 S           2.34559165726406   -1.09431041993473   -0.46699772872703
O           2.30569949448402   -1.49264124753612    0.92471107106408
O           1.49227692259917   -1.95269473235065   -1.30384210586373
O           2.04806631121575    0.29749865468011   -0.70514882836769
O           3.83629498457197   -1.35075647567652   -0.95261179021326
H           4.05253826784675   -2.16308425959420   -0.50535114441789
O          -1.75443943616763   -1.23176928253038    0.87451153975789
H          -1.88763930587812   -2.13481257097153    1.16388174397309
O          -1.35437206991616    1.98510425763083   -1.25797384682931
H          -1.66399167696173    2.79613816339509   -1.66109580386637
O           0.66724113692143    2.01700731182077    0.75565647912218
H           0.03487109441189    2.22810682407579    0.05554364065943
H           1.36569016042790    1.51990984328401    0.28635555778071
O          -2.51753269912024    1.42226055285106    1.05665663203328
H          -1.84482343473654    1.71683542659767    1.67854176500399
H          -2.49151209361517    0.45242018105974    1.08111811987841
H          -1.91369093681508    1.82607626613190   -0.45804067177892
O           0.26461110617653   -0.28331535752943    2.08612500232733
H           0.40525750224212    0.62909828320058    1.75100505056730
H          -0.94583664299465   -0.88907586470066    1.40097280696645
H           1.05491184776409   -0.77977872561388    1.77804865263452
N          -0.71053986075263   -0.69457726120776   -1.53374662118014
H          -1.23501406219452   -1.01217132324047   -2.34264915736077
H           0.26381455151575   -1.19044680154091   -1.50031404456962
H          -0.61017490604187    0.33013739609687   -1.56360608768073
H          -1.20729792221606   -0.95115885850579   -0.64175022097150
