    26
        -50.45476228  Gyration_radius:  2.60436883135 Dipole_moment: 5.798
 S          -1.24471030223831    2.08198827538146   -1.01705868391848
O          -2.37997879897933    1.19262342708047   -1.14882814423200
O          -1.06962146800140    2.54032630003219    0.37018192119138
O          -0.00382376903382    1.55770276800596   -1.53460422902439
O          -1.60344551457466    3.37647829387307   -1.86521305391189
H          -2.53419383007293    3.47511656972301   -1.69024177225788
O          -0.86455096509101   -1.15890131506880    1.80854277055503
H          -1.64878645418911   -1.10097631492634    2.35496696200840
O           2.63564037240162   -0.60018177574245    0.22957475573402
H           3.56590226228907   -0.78880011774067    0.10641254856195
O           0.76512571603898   -0.94708235083761   -1.89736584762827
H           0.47652726548394   -0.01975368349932   -2.00701715372145
H           1.55220869569614   -0.87152317289579   -1.34105720596742
O          -1.57999976115956   -1.26968077813617   -0.62461228830533
H          -1.20337778717138   -1.21896033290442    0.84415444017839
H          -1.99775325762229   -0.40930791043551   -0.85083776763465
H          -0.76311579790826   -1.29350366783237   -1.16932917519949
O           1.16889606510137   -2.73596165352380    0.79089189782620
H           2.20476865554231   -1.44093921450385    0.52194031035267
H           0.77981994221503   -2.92416179333615   -0.06884188373340
H           0.45031343352958   -2.36867079384069    1.32991371877364
N           0.67950352105529    0.98804077549639    1.37944598975634
H          -0.00831507320582    1.70169613055461    0.91686988962877
H           1.40068152820210    0.67516613215144    0.71386384529573
H           1.12054059655047    1.40662739773779    2.19218892579099
H           0.10174473514270    0.15263880518279    1.65605923989098
