    26
        -50.45935140  Gyration_radius:  2.45175071535 Dipole_moment: 8.716
 S           0.16871070965144    1.62108933640561   -1.16319402254375
O          -1.12147596143191    1.79637048190995   -0.44747911575808
O           0.87976146975453    0.51331860872587   -0.55117264705759
O          -0.00580762943474    1.46770679971021   -2.58270176961720
O           0.99955799818218    2.92539733224217   -0.91960289344508
H           1.06802470565068    2.97363917567247    0.05144349552528
O          -0.55071347362343   -2.41483549645128   -0.70978650886316
H          -0.98609993732440   -3.20087790412461   -1.04398917625662
O           0.50608239650989   -0.22264776085478    2.63473502770213
H           0.80227765654553   -0.44684751108681    3.51737225350665
O           0.40217419857349    2.49375917125885    1.66413064287494
H          -0.37451961397842    2.36405930424031    1.09745585389715
H           0.62593379589631    1.61777238565504    2.01072018505600
O           1.76541878478424   -1.55652859567929    0.77966604619024
H           1.14950457333561   -2.18228199350857    0.37905823577577
H           1.70099153682197   -0.77559259333618    0.19582955494595
H           1.08521051280275   -0.73003777038947    1.99535560601282
O          -0.02701276420756   -1.12827273546462   -2.94900174314084
H          -0.52646821237841   -1.17970532718858   -3.76628102184914
H           0.09778395085871   -0.16479277019538   -2.78330392285728
H          -0.25516635476338   -1.90845110889363   -1.50896335360216
N          -1.50471986243242   -0.38799684524501    0.83230722899160
H          -2.46725433372414   -0.50142919937695    1.13182625099511
H          -1.38505839039971    0.53066647149336    0.25518887489161
H          -0.85837962425053   -0.31949289012435    1.64502789000824
H          -1.18875612142180   -1.18398854539517    0.23535901862062
