    26
        -50.45476245  Gyration_radius:  2.60371969371 Dipole_moment: 5.785
 S          -0.53504300157361    2.30623099787437   -1.14235477632642
O           0.43568747602894    1.90630274967021   -2.13974030847056
O          -1.82485675863041    1.62407438985893   -1.33231395992402
O          -0.08926004928496    2.16854286965422    0.22331887238035
O          -0.81258281849074    3.84953859442341   -1.39752421361984
H          -0.79337095947124    3.89908123303998   -2.34820345353303
O          -0.19615964439035   -1.99321231132154   -1.16025432146410
H          -0.43300633637586   -2.25070409207724   -2.05165879931178
O          -0.29515091714019   -0.86892283520333    2.55103659370881
H          -0.28013993579932   -1.01534414570711    3.49679797498553
O           1.77682532050472    0.60264244970306    1.25420297926945
H           1.18216324260178    0.17304163887401    1.88387796517191
H           1.24962914077205    1.35657845821808    0.92428524202554
O           1.66426770408927   -0.27044638917120   -1.28464783042733
H           0.56515412949466   -1.31596801006029   -1.26130636138268
H           1.29384157619834    0.53543869639660   -1.70794914962556
H           1.86788481208926    0.01009865584855   -0.36562992620390
O           1.16565548911866   -2.59878357887224    1.17127496307008
H           0.69929760207411   -2.64503074317604    0.32146022774767
H           0.20058817514394   -1.61563130993891    2.13336006984224
H           1.95960882367929   -2.08128263276890    1.00490109458626
N          -1.77231919812121   -0.36076018769572    0.26349894928225
H          -1.82372486511339    0.53818877551612   -0.35720252079839
H          -1.25973478446183   -0.18382165857649    1.13924061916409
H          -2.70800441988357   -0.69296915382214    0.47415649129631
H          -1.23724978306643   -1.07688245068100   -0.29262644144554
