    26
        -50.46713380  Gyration_radius:  2.48615110764 Dipole_moment: 2.677
 S           1.07493506627968   -1.19218768450579   -0.71094839340905
O           0.71721780531658   -0.99360954046346    0.68569957326173
O           0.36683914904858   -2.33275653112336   -1.27226836819979
O           0.93413057426540    0.01143884062849   -1.50201139249258
O           2.61583736370670   -1.54994202415606   -0.74493469720137
H           2.67859918591927   -2.34456031426196   -0.22452702321982
O          -1.72166446144463   -1.46936587767843    1.77033194717375
H          -0.76540074000104   -1.50384028680487    1.57885890221864
O           0.96371572408952    3.14732868775850    1.35277750742822
H           1.38818921148842    3.18557041449809    2.21119382473176
O          -1.62387630751189    0.86785731064462   -1.37033809889475
H          -0.71005790594409    0.72187964561651   -1.67413268509884
H          -1.50797350828775    1.17649368862118   -0.43916196633354
O           2.57553895884479    1.60768618510730   -0.17836160820147
H           1.58055265830058    2.65769690557201    0.76912800845383
H           1.97634350448433    0.99848361783673   -0.65464660362759
H           3.16385548190023    1.96977109711781   -0.84335428332308
O          -0.86516130825233    1.16714069281840    1.15154145955930
H          -0.18512063588540    0.47975051323561    1.02227368070959
H          -0.35880177842957    1.99693901353976    1.26484289631821
H          -1.88042054247089   -0.54143000424414    1.98660100246386
N          -2.11677335029484   -1.63153045884093   -0.84768544508091
H          -1.17891379833065   -2.04350977369762   -1.11034931307355
H          -2.07233091129342   -0.59567884743760   -1.14452754842008
H          -2.88412871770015   -2.13039946326225   -1.28373478563398
H          -2.16513071779541   -1.65922579652304    0.20773338990386
