    26
        -50.46282829  Gyration_radius:  2.50930964444 Dipole_moment: 5.065
 S           0.92934626862621   -1.59367021265966   -1.04608260887143
O           0.69569558960724   -1.01133265400266   -2.34692699923032
O           1.33644553901063   -0.63391086799159   -0.03384385293109
O          -0.20664619313374   -2.38926076935371   -0.58144580500671
O           2.14235186614689   -2.59667257235184   -1.22217757951615
H           1.97915230651166   -2.90822420397085   -2.10575218411650
O          -1.57292685493630    1.60617015126102   -0.24431972646331
H          -2.23380384168501    2.25330437959969   -0.49272256294123
O          -0.97485417529937   -0.63050469880580    3.05697640673555
H          -0.33886044500059   -1.30172434151899    3.31049320246466
O           2.40829042167855    1.76357372456580   -0.62422381094041
H           2.21143624874698    0.82010370945080   -0.47040280771708
H           2.30050364937264    2.19068356602364    0.22954012402088
O           0.15394657107043    1.57152961289666   -2.12444710117705
H           1.00069788188778    1.85981323620347   -1.72879399643257
H           0.30728606670459    0.62942713463313   -2.34827031943396
H          -0.89833192890838    1.59634516638473   -1.00654629619825
O           0.37709804993760    1.17713831760861    1.71366075880707
H           0.81394413102531    0.51031188469305    1.15025347869048
H          -0.29597963785834    1.57722850561238    1.14284964078835
H          -0.43973827929083    0.14371042641199    2.73766006420707
N          -1.96298038048292   -0.92792863698885    0.60456694280899
H          -1.25186188159534   -1.55376168938481    0.09197643116799
H          -1.68094801886666   -0.89230848320748    1.62356240957768
H          -1.89968559331279    0.04197090382154    0.21712410658473
H          -2.89957736995425   -1.30201157893458    0.49729210510997
