    26
        -50.46185760  Gyration_radius:  2.64664312583 Dipole_moment: 4.948
 S          -0.58424976197679   -0.12021562783746    0.94566992810313
O          -1.26231850006947    0.85598697192810    0.10030158869267
O          -1.36271468318312   -0.56051869221186    2.07087239997215
O          -0.31623236752832   -1.37767892838646    0.01055842636917
O           0.76076954387081    0.32942903447169    1.30694632475030
O           1.81699108228552   -1.72692630031719   -1.68092935256944
H           1.00233099491081   -1.71856312293978   -1.14483737471787
H           2.31960864514772   -2.49218696942132   -1.39750863979399
O          -0.10688757751331    2.20806232911570   -1.81330201739675
H          -0.62311774325871    1.70251274533065   -1.13686353634684
H          -0.30624512739333    3.13189611972132   -1.65466578980953
O           3.16517862187468    1.76667173527134    1.42685466320747
H           2.34230335105406    1.30377294195878    1.64537510526397
H           3.53645593133556    2.06130166524368    2.25921102545407
O          -3.73895728970217   -1.59680430239964    1.59663354835637
H          -2.91671930561753   -1.14206932971593    1.88769554242197
H          -3.76775332764295   -2.42307833274408    2.08159650090041
O          -2.70706880562127   -1.21712486578890   -0.83640833388622
H          -2.56577674736430   -0.26201351540395   -0.74791441437559
H          -1.23181837582508   -1.48813148969485   -0.39313010502555
H          -3.26670775381426   -1.46147031763730   -0.06690097397361
N           1.99038273791498    0.85342987350733   -0.92106878448760
H           2.85040258540462    1.33003325541286   -0.65222021598089
H           1.47926639419482    0.61071326900431   -0.01280067291215
H           1.33562645441414    1.47335140257754   -1.45460300412700
H           2.15725102414640   -0.04037954899938   -1.41856182806862
