    26
        -50.46185762  Gyration_radius:  2.64666174239 Dipole_moment: 4.949
 S          -0.42194672338083   -0.93862743577036   -0.43726137639596
O          -1.22871845870875   -2.02845338465546   -0.91407913117426
O           0.26121480736359   -0.19959258300391   -1.49300829116170
O          -1.38351618456172    0.11532552221747    0.26430051828844
O           0.50271501898004   -1.32100643388279    0.63073014366437
O           2.11373895996707    1.59505965651689   -1.07740726704195
H           2.86206298392489    1.34722860836578   -1.62236705713940
H           1.39017792365705    0.96163062978788   -1.31177372721676
O          -0.70326155257409    1.86286239562869    2.26882676406342
H          -1.21987335787522    1.66030079976257    3.05025697249746
H          -1.06837012831486    1.31681889493094    1.54798419738689
O          -3.09499495150634   -1.49339748686226   -2.69617834533471
H          -3.89841075258673   -1.89880124074913   -2.36621688706507
H          -2.37175011039321   -1.81396601490617   -2.11157095118236
O           2.77513612816330   -1.54079989545776    2.25835550022979
H           2.00327130285316   -1.72662656857952    1.70269422037956
H           3.12647797925690   -2.39174930330775    2.52279059525036
O          -2.13615961695220    0.90786510130840   -2.03017711063404
H          -1.82197619108881    0.51414760045511   -0.54944107506747
H          -1.21600187661810    0.73157653256471   -2.27979145126353
H          -2.64703877925164    0.15677038246277   -2.40417358681863
N           1.65631954625002    0.86541344340629    1.43020022913009
H           2.41684221331268    0.56548492724567    2.03904058344621
H           0.94952280124390    1.44732763010090    1.91609506137431
H           1.99904409271618    1.32851583086888    0.55512900770923
H           1.15549491626888   -0.02330758858196    1.10704246402842
