    26
        -50.44499761  Gyration_radius:  2.55429355918 Dipole_moment: 5.298
 S           1.48328509050621    1.46651618885488   -1.01221774941343
O           0.48119396226700    1.75884617479976   -2.01062481853531
O           0.93500425957150    1.64305647004377    0.34976184706093
O           2.14728435240792    0.19763387481827   -1.15901664974205
O           2.60101282616445    2.58382644742973   -1.14950420244801
H           2.09968363140437    3.37775653566840   -1.30981205756690
O          -1.80936078710296   -1.06375420971368   -0.57204249029936
H          -2.67293604944356   -1.14857782546333   -0.97853029226220
O          -1.38037745149758    0.04897503380910    2.99986728872728
H          -2.20292416185689   -0.17668537010417    3.43620339278558
O           1.88508322767779   -0.83381009797515    1.28540660228465
H           2.07588024716286   -0.58611958947521    0.35994679851641
H           1.77526220217234    0.00912178984009    1.73509073691877
O          -1.43560459137135    1.12749203785529    0.70698143534343
H          -1.60372380649788    0.28645502231790    0.14870907523916
H          -1.44113868013119    0.80180312186958    1.68926054961299
H          -0.40815215047247    1.41340521527115    0.51724632212598
O          -0.46619746717105   -2.01314301566022    1.73542823291897
H          -0.99404299437063   -0.81002295604876    2.64619719463864
H          -0.90881305534051   -1.93255907686952    0.87973368664826
H           0.46621551347116   -1.73464612143676    1.58319896870005
N          -0.08895609647358   -0.91875041653420   -2.46653595489601
H           0.81564246551480   -1.24275599149981   -2.14015796092291
H           0.00987516771873    0.09756088366548   -2.53151344489044
H          -0.24262131992693   -1.28877082430106   -3.39634168080548
H          -1.12057435438866   -1.06285330116177   -1.34673481974150
