    26
        -50.45717735  Gyration_radius:  2.52442744032 Dipole_moment: 4.851
 S           1.17117207403292    0.81168977983906    1.52070468070639
O           1.47509583267956    1.15379566382530    0.12986853640554
O          -0.06878828284985    1.45334169377034    1.92509779547066
O           1.20035050649260   -0.61027824166989    1.76309875627271
O           2.32457860371714    1.44580248350211    2.40184094062692
H           2.18623503509592    2.38341259348571    2.30709566471927
O           0.33087052917904   -1.06427211237106   -2.69028646621828
H           0.01078236665081   -1.73050761420980   -3.29934376830169
O          -2.26326817517482   -0.96545185042506    0.39805760095423
H          -3.21666244446766   -1.04567014773699    0.44852226535829
O           1.41060175685464    1.66580025473110   -2.64965101578780
H           1.43576868777299    0.75211558622901   -2.95074710228144
H           1.72662776846372    1.64242270312769   -1.73848861663557
O          -1.31418074308274   -0.66227941551386    2.78917914710193
H          -0.49646583361648   -1.17616796191868    2.79833723050667
H          -0.98800753954088    0.25122966615415    2.62997322709941
H          -1.94555158157116   -0.87862312464986    1.34802822305252
O           0.29052928578991   -2.10150856199766   -0.27174076921712
H           0.48215335108600   -1.52502391354972   -1.82558521497613
H           0.77431264709822   -1.63017571039442    0.43493257279482
H          -0.64345441838891   -2.01479909955191   -0.04243007920068
N          -0.80591543052176    0.77962297627658   -1.08728768262228
H          -1.45678131753444    0.22371796140300   -0.48951485873877
H           0.08721593382807    0.99563001837690   -0.54380556868783
H          -0.49128862367827    0.19557411619831   -1.89674734503765
H          -1.21592995831364    1.65060224707029   -1.40910816336526
