    26
        -50.45717740  Gyration_radius:  2.52456901248 Dipole_moment: 4.853
 S          -1.19252784354369    0.60025927914646   -1.60060041173543
O          -2.12023371212235    1.01047434798200   -0.55956399961739
O           0.10264893140266    1.25138880992702   -1.39442690454267
O          -1.07848674936308   -0.82999137582212   -1.75255729810374
O          -1.76290615497643    1.15759299436797   -2.96907446175507
H          -1.93667734221799    2.07489158893800   -2.77998253757400
O          -0.88975428534769   -1.26075231603787    1.95778955896330
H          -1.23206675287046   -1.45094338270199    2.83221624212399
O           2.81702670092364   -0.44640793659510    0.58784132728555
H           3.42214306542398   -1.00314037382247    1.07897532651109
O           2.50909851028127    2.31558885686188   -0.36043413180333
H           1.78399535429946    2.13837317707270   -0.97151333375035
H           3.00285511446682    1.49138754054165   -0.30632759226629
O          -2.83536258034046   -1.35734814198291    0.25045268576156
H          -1.67463746867059   -1.33807253612203    1.33413652027479
H          -2.79242955773128   -0.40132121288440    0.02593730681854
H          -2.45560035359142   -1.77228638060438   -0.53468470527700
O           0.82700165482238   -1.95754869930190   -0.23900046728900
H           0.28887463515108   -2.01898133874247    0.56042913010419
H           0.23143048865367   -1.59341078558866   -0.92331978025399
H           2.18078963443441   -1.05654472593767    0.13414831991246
N           0.55068622359148    0.89696295262334    1.15446502939172
H          -0.08354648319761    0.16411318881587    1.54253483233533
H           0.50958769625390    1.76713055361150    1.67546666442448
H           1.52988987137330    0.52902405659776    1.12193875816532
H           0.29820140289740    1.08956187965754    0.13515392189676
