    26
        -50.45717743  Gyration_radius:  2.52442656554 Dipole_moment: 4.851
 S           1.08724855850985   -1.71206722965020   -0.47938810626176
O          -0.26318709516532   -1.55231933129154   -1.02223724176832
O           1.99044130176338   -0.77332221892689   -1.12411810416546
O           1.11764548566749   -1.65740814626291    0.96202116581047
O           1.56685233541439   -3.16517924891159   -0.88836879672470
H           1.64774413351297   -3.11376394137949   -1.83604508611754
O          -2.74147725628764    0.74966729685296    0.63358165969287
H          -3.27445884505573    1.33650034489193    1.17100098210302
O           1.05937402743182    2.08069863762450    0.87239765279597
H           1.43943360425864    2.95977094517034    0.89941566176522
O          -2.74221464912092   -0.58821579012998   -1.98000743083259
H          -3.14672629577862   -0.40028901185148   -1.12731952650718
H          -2.01711592848400   -1.19535164889741   -1.78958226704211
O          -0.62609586555755    0.06921771718804    2.04399194237156
H          -2.05641484348210    0.36262512098353    1.23673039700960
H          -0.08695434983871   -0.68111916359500    1.72474173251560
H          -0.06645763998332    0.84877742260059    1.93669329283927
O           2.96523236566335    0.33272595076002    1.02065482366163
H           2.81842575583608   -0.02211499710828    0.11576692532967
H           1.83357624730530    1.44526925448500    0.96077014233147
H           2.61291689266118   -0.37167703068522    1.57961625090352
N          -0.61346135611666    1.03631718809152   -0.99468243151989
H          -0.40560198823174   -0.00859209630712   -1.06308314182329
H          -0.65074024028313    1.42800079404044   -1.93034894564836
H          -1.54987436758001    1.09246951366307   -0.53072517544258
H           0.10189000294260    1.49937967864344   -0.39147637527565
