    26
        -50.45248440  Gyration_radius:  2.40932702499 Dipole_moment: 11.098
 S           1.08448589672018    0.99741271201252    1.67855453757317
O          -0.23569879206480    0.81999639301589    1.02146125102520
O           2.10718537943209    1.15513792064368    0.64666958706332
O           1.07911532534434    1.99217885941606    2.69476576911887
O           1.33423938575503   -0.40920684779310    2.36865650500287
H           1.09800538890004   -1.05396448651576    1.68345896796329
O          -0.41577228620148    0.50147375218940   -2.37145249111679
H          -0.85715793882597    0.84602143686971   -3.14882115231133
O           0.71230731575942   -2.19577149333331    0.36560008649115
H           1.18828061862092   -3.01790715860616    0.48924977176245
O          -2.65436544029700    0.11180358383432    1.39415524149520
H          -1.77450009075520    0.57406354433852    1.38729500352236
H          -2.73286356010781   -0.27666864114868    2.26713972879761
O           0.27203143871747    2.48718130019158   -0.87558585103406
H          -0.14641734216514    1.31134492673216   -1.83025317699784
H          -0.05056710558988    2.00717396289123   -0.07681051074937
H           1.22492714460458    2.51449343423339   -0.72370774420200
O           1.94666275738705   -0.62489818595551   -1.19766140368267
H           2.11484589800907    0.08541516116556   -0.51317291950285
H           1.26244149555520   -1.63502089552961   -0.28611834881809
H           1.29797252317769   -0.24931812259158   -1.80680246151266
N          -1.58854212183562   -1.20389732607805   -0.64559315036012
H          -2.11141649239756   -0.70585727456609    0.13475414968311
H          -2.18688412830502   -1.85804057324192   -1.13939160716906
H          -1.19370068934004   -0.48300969516837   -1.30673271438247
H          -0.77461458009556   -1.69013629700561   -0.20965707765826
