    26
        -50.45529530  Gyration_radius:  2.51438840108 Dipole_moment: 7.390
 S           1.62827624496150    0.44127543060840    1.28238061669175
O           1.25243823476756    1.44950364475460    0.31779585636475
O           0.73993991285639    0.42382017964228    2.44369024702562
O           1.78071975985167   -0.88865495713757    0.71583582712778
O           3.06155243405192    0.84303621914470    1.82269283854023
H           2.98353456043234    1.76935644432267    2.03238500024945
O          -1.95426963876324   -1.27394146028494    0.04951735509226
H          -2.90778166454062   -1.36246877224724    0.01980659028536
O           0.96213830532939    1.17383988202345   -2.42006140522654
H           1.20886051903710    1.43563394207193   -1.51972883077987
O          -1.58096560287651    1.91027200152615   -2.46261515342877
H          -0.60520692498927    1.76066837146944   -2.54854538864912
H          -1.98890125681833    1.35682604759556   -3.12981889855052
O          -1.44208653543653    1.21893949934596    0.12252270613098
H          -0.49658613051665    1.38567245737639    0.28729979768362
H          -1.60765634858395    1.57275910928045   -0.78194408367982
H          -1.76938708853066   -0.27062148514941    0.07228491632921
O           0.43175337973901   -1.39121520034480   -1.60364161555223
H           1.03870975939167   -1.25825649064681   -0.85622727907524
H          -0.45378462057847   -1.44635795310866   -1.22484752235721
H           0.83827300424042    0.20760392443770   -2.36671431872646
N          -0.25228475774560   -1.85674858058556    1.97528996067663
H           0.62325262620899   -1.98187737642786    1.42661407939141
H          -0.40877812514792   -2.58186979592149    2.66642291819097
H          -0.03227667004788   -0.88808362593040    2.39192553174390
H          -1.04948339630233   -1.74911146527872    1.28768027435877
