    26
        -50.44806682  Gyration_radius:  2.62578955964 Dipole_moment: 6.894
 S          -0.93027033109972    1.85942296499151    0.93120157002857
O          -1.89110411270014    1.25682199712486   -0.00187711190228
O          -1.16051826949720    1.32729693576007    2.27742367934938
O           0.42723831058022    1.76791491507120    0.48577252374414
O          -1.28872049861332    3.40081983615637    1.00618678412689
H          -2.14953404383825    3.43101209323116    1.41381162626134
O          -0.08301016798994   -2.19979838515182    0.41344697544981
H           0.27868456731126   -3.07390703934588    0.56272316848840
O           1.56162614165896    0.07874787465956   -3.01872170853545
H           1.55536754510817   -0.53395715971971   -3.75532915386335
O           3.34891248138916   -0.21233016555863   -1.03155049514699
H           3.68821431540085    0.67303826906008   -0.88785717848131
H           2.72113065296380   -0.12766689814087   -1.78342536976585
O          -0.74243623655677   -0.48149785859251   -1.76230237718293
H          -1.10036112031537    0.26549764608205   -1.25257448766845
H           0.68877625570033   -0.02014328069335   -2.57632558188377
H          -0.48293783684300   -1.15541689663136   -1.11883878402250
O           1.68882978770362   -0.50481814366109    1.04230862011803
H           1.26091868689137    0.37092348870494    0.95019317358508
H           0.66070853819324   -1.54054920063979    0.67319622081994
H           2.37748231615435   -0.50654926645918    0.33554102105970
N          -2.11411572871429   -0.86314167696589    1.43729527191213
H          -1.68465716329207   -0.11358887748169    2.07385751812478
H          -1.36480131793403   -1.53819952240549    1.12387610285429
H          -2.92422638009182   -1.32710228976033    1.83275417466233
H          -2.34119640156765   -0.23282934962489    0.62921383786860
