    26
        -50.45529538  Gyration_radius:  2.51422791849 Dipole_moment: 7.388
 S          -0.69552418983709   -1.62743636108105   -1.16520620453677
O           0.40323739517455   -1.88146810146869   -0.26162104175383
O          -1.98485526249501   -1.59010038137369   -0.47642032383986
O          -0.51130642979484   -0.45314300210773   -2.00189242633925
O          -0.75686916082200   -2.85712028081316   -2.16103781172508
H          -0.70498717762715   -3.62200656431072   -1.59500719255530
O          -0.85511492779617    1.96142513495060    0.92962340800138
H          -1.07105897496496    2.51925607353803    1.67798559403897
O           2.80719293220963   -0.52548925136004   -0.06706932132586
H           2.09988579237114   -1.18166237872402   -0.16321490771878
O           2.47276335060859    0.18437790917306    2.46176768695617
H           2.84254909026050    1.06605761362890    2.52358481191733
H           2.73402575179755   -0.15527598548068    1.56828469826705
O           1.19668251585016    1.45882940507457   -1.06434814703791
H           2.45444066824373    0.27637991067377   -0.49651215778664
H           0.67740807832980    0.77919312782332   -1.52605121118937
H           0.62571490656055    1.80815436912988   -0.36957805950442
O          -0.09833022707743   -0.28067307703521    1.86867876861551
H           0.01211915396393   -0.94488567923027    1.16469306979152
H           0.80640878789849   -0.14742495266588    2.23528380320937
H          -0.54918044550766    1.07196346103623    1.32557087054824
N          -2.42434348782900    0.86862148979704   -0.88364365317826
H          -3.30990958672809    1.26581388325238   -1.17685235282039
H          -2.48622732454517   -0.15413043024926   -0.55090860745643
H          -1.74894250389937    0.72805050695867   -1.66288614520327
H          -1.93577871153027    1.43269357270531   -0.13322313730758
