    26
        -50.44806663  Gyration_radius:  2.62552380344 Dipole_moment: 6.906
 S          -0.60290414351391    1.73322125951571    1.34854300792508
O          -1.81169454723644    1.11815022934832    0.78485544368131
O          -0.29771330216917    1.11095507523540    2.63998661769978
O           0.49822766311866    1.76293966475819    0.43403827085400
O          -0.97761961060419    3.23884111926884    1.66902144232054
H          -1.63169966945703    3.18526265946908    2.35988661850030
O           0.17231718712418   -2.22196009555465    0.24139172455877
H           0.60217960981453   -3.07575625568254    0.18183409739508
O           0.33603360485178    0.36079465053948   -3.36404569288610
H           0.08779664551075   -0.20870822540844   -4.09348311104747
O           2.73997538563076    0.08691517061503   -2.19190255908188
H           3.06532843300651    0.98512671606447   -2.10839232541313
H           1.87683047959853    0.16878444951602   -2.65547487589539
O          -1.31628575814010   -0.43243519158808   -1.40393235521116
H          -0.80914135546584   -1.12241296524493   -0.95427030822058
H          -1.49419975787442    0.25729913441880   -0.74168759771603
H          -0.30740471870859    0.17489855302708   -2.64378501766477
O           1.97368101224876   -0.44487665476154    0.31236532821825
H           1.50385749308420    0.40261358749577    0.45218460755489
H           0.92925809109237   -1.52793125494687    0.26338527146581
H           2.35342130337061   -0.35723676045808   -0.59422642397911
N          -1.39562586529590   -1.08988117307796    2.03593956414359
H          -1.93104392775824   -0.43152803170369    1.41782818769972
H          -0.78548949890760   -1.69229045979180    1.41926021083461
H          -0.79550735133406   -0.35007146646682    2.52951188786934
H          -1.98257740198678   -1.63071373458070    2.66116798639746
