    26
        -50.44443802  Gyration_radius:  2.50940377693 Dipole_moment: 4.857
 S          -0.84775743331755    1.80470459022419    0.94228273688502
O           0.38014011916209    1.69159588854826    0.16127286102156
O          -1.99370066200949    1.34682876076176    0.14270259633095
O          -0.76734565820161    1.18667187441607    2.23319921767617
O          -1.09676910987063    3.34941264851324    1.15753548281178
H          -1.23298583209340    3.64170376838409    0.26252042878313
O          -0.00087386963623   -2.13317241344082    0.07468435756260
H          -0.16904186785947   -3.04041003771414    0.33010708406630
O          -1.18850745789834   -0.51188695562084   -3.06928016351593
H          -1.04278305268796   -1.22936576823152   -3.68761449951167
O           2.86749938035088    0.75712787498756    0.71317646044827
H           2.04450559105670    1.26830497730713    0.61064767697735
H           3.12843413988994    0.51894055298369   -0.17956221821358
O          -2.07989916303238   -0.95860418796010   -0.71231829289441
H          -2.08659357479564    0.02526708520401   -0.29259599449336
H          -1.87153161080047   -0.79949860284891   -1.69943381807003
H          -1.23677339618935   -1.45645079593789   -0.33063124451808
O           0.98469378643980   -0.15880025693369   -1.66143086462660
H           0.77834941494616    0.59028259821620   -1.06349214203081
H           0.91211434659458   -0.94919273442440   -1.10784012228649
H          -0.29922938560209   -0.27673661883479   -2.68559091974124
N           0.99759142684451   -0.93085794322604    2.03908669397038
H           1.18231318106994   -1.44343019610763    2.89119544853685
H           0.33969907141613   -0.17156738392504    2.24674370361133
H           1.86345746194338   -0.48506911710862    1.72673674308337
H           0.43499416428082   -1.63579761722844    0.95789881814458
