    26
        -50.47044859  Gyration_radius:  2.42967668758 Dipole_moment: 3.700
 S           0.51304718565552   -2.13860381436253    0.07417912020280
O           0.78708391261622   -2.55485379862942   -1.27213561752912
O           1.45957758730474   -1.15029386559976    0.58949666269452
O          -0.85753347242279   -1.68205705481103    0.26913658729970
O           0.69762354520190   -3.42871130387589    0.98591789828249
H           0.85652588445185   -4.10127961621022    0.33159856257500
O           1.59368366431720    0.40122751273912   -1.57341470846999
H           1.76678415043130   -0.26222514096101   -0.87829406224945
O          -1.91557457949664    1.77686058576618   -0.65293979775695
H          -1.81393830073333    1.07829741200406   -1.31606376165803
O           0.78270057850698    0.76948196491829    2.18734064399083
H           1.00574313027717   -0.01562332262305    1.61676858138054
H           1.37625856201451    0.72053230439629    2.93780486961451
O          -0.95454864811036   -0.46334124446078   -2.04685355750888
H          -0.88952913551099   -1.14935912568765   -2.71471400471616
H          -0.98336809911083   -0.95104999777355   -1.19226046996036
H           0.76986462120349    0.09201868819103   -1.99726536240509
O          -1.95699504284713    0.37567382202531    1.59438748553611
H          -1.71994956429227   -0.47628264554700    1.18362020705359
H          -1.16086644041086    0.63591404780976    2.07573893272011
H          -2.13175320528704    1.30516294345344    0.19068405212640
N           0.56863875915912    2.27768936815472   -0.07103279330178
H           0.69154882234278    1.90118742991146    0.88813752608601
H           1.08808616013045    1.61284919415525   -0.73379703079706
H          -0.47807123020055    2.19645514703085   -0.32981719993391
H           0.90496117478178    3.23033051000352   -0.14622274327020
