    26
        -50.46846756  Gyration_radius:  2.39931651935 Dipole_moment: 5.643
 S           0.30232803510505    0.99705518031510   -1.49247245160902
O          -1.03196749285031    0.35780968271112   -1.38751212766220
O           1.17732496442258    0.44560693890966   -0.46411587502637
O           0.85707009741637    0.86585246411027   -2.81249569519634
O           0.09124971585273    2.50756241269642   -1.17139651071577
H          -0.14680197207778    2.55064371603593   -0.21416362974470
O          -0.37249175091025   -1.67681963565533    1.80819965748411
H          -0.21101701726580   -2.28220714347214    2.53280078873852
O          -0.72680804005722    2.51833795540072    1.36309394624171
H          -1.26814769936906    3.30041686372154    1.48375100246492
O           2.02677953069058   -1.43952006025479   -2.23575025053805
H           2.65166086196278   -1.09783382255088   -1.58905694139947
H           1.64594151342587   -0.62584851361777   -2.64106957109026
O          -2.18862470550116    0.38834130281884    0.98626851795956
H          -1.91234020935208    0.38190264428747    0.04367822093020
H          -1.76480923766564   -0.38447856325148    1.38427036384369
H          -1.35573589939033    1.74487786748739    1.30662656940232
O           1.07686706880224    0.45504567175570    2.13738420934877
H           0.20378022154094   -0.87405673719327    1.98674370060399
H           1.27876253657522    0.48861554502615    1.17454730178266
H           0.56927909659660    1.26034914107049    2.29200089096814
N          -0.18414893934648   -2.01702506272124   -0.89193365229975
H           0.76861997819753   -1.93595675611934   -1.35600160459851
H          -0.66049928894422   -1.08909703888561   -1.15255462317069
H          -0.70424982019102   -2.81604446650418   -1.23932106424063
H          -0.12202153766584   -2.02352958611913    0.14847882752644
