    26
        -50.46742652  Gyration_radius:  2.40221572306 Dipole_moment: 4.771
 S           0.97173967752625   -0.01639093114485   -1.42067786404676
O           0.47371309172587    1.19649061136259   -0.77217830608844
O           0.06958670441551   -1.20211467202727   -0.90616943677013
O           0.67983338400630   -0.00655918278839   -2.85209320709331
O           2.34295247332206   -0.29681438638101   -1.07112126841226
H           2.61541139663448   -0.18831110996954    0.51157508862590
O           2.69867069781079   -0.20120731912016    1.50151934559415
H           3.59363800973193   -0.49212740025921    1.68284667625553
O          -1.39708691481395    0.25895453135441    2.14776899749894
H          -1.87708825824422    0.51183007728385    2.93702284074213
O          -2.08636239474427    0.92398980227933   -0.47263410000969
H          -1.14838630943441    1.21463374528941   -0.58457794434999
H          -2.09273360673208    0.53089215109647    0.41667636468575
O           0.73843011801371    1.73874750770316    1.81421842981318
H          -0.62869985235154    0.89353183614981    2.07372907480087
H           1.53015510874928    1.21294610067247    1.99722367444384
H           0.68448273630670    1.74477931082974    0.83705455175746
O           0.43541801411071   -1.69658624536104    1.58068582947438
H          -0.27539792298339   -1.12349859110484    1.92105811342870
H           0.25800464567700   -1.44780473751409    0.05472010537746
H           1.27706846843453   -1.22831374349846    1.74222799050295
N          -1.80633625741497   -0.47465143103875   -2.65088894607450
H          -1.88246128806047   -1.47573908868342   -2.49457334576351
H          -2.04960662263042    0.04859264871297   -1.73791738619959
H          -0.73687138233839   -0.25251644412206   -2.82930904466697
H          -2.38807372671286   -0.17275305971863   -3.42618622352412
