    26
        -50.44784106  Gyration_radius:  2.452366824 Dipole_moment: 2.556
 S          -0.26517093205605   -0.09794666772894    2.04981945512644
O           0.86514537701769   -0.06576324202346    1.13759801616401
O          -0.77326884470879    1.18082725700126    2.44677361232871
O          -1.30937362945227   -0.99559426178422    1.53529531274375
O           0.29703719003953   -0.80476302647700    3.36049997534832
H          -0.29939912755057   -0.52121760526637    4.04665045798763
O           1.85552582240700   -2.19215362542151   -0.05084557507561
H           1.69400319058046   -1.50104237749717    0.62683182427063
O          -1.04312131205931   -0.44631663474635   -2.03310088342319
H          -1.79973278368951   -0.50803583040141   -2.61712470344128
O           0.98596328905549    2.94182518804567   -0.91949432035767
H           1.40255216383822    2.13785611246377   -1.27953301525584
H           1.37065251672456    3.07327060458392   -0.05078645961778
O          -0.65488294844990   -2.34929159528607   -0.41357992143880
H          -0.97357517221884   -1.83989085603626    0.47315664319777
H          -0.83140010290425   -1.64192749669404   -1.14852994140333
H           0.37207671965944   -2.42489909404006   -0.31757567905428
O           1.62343854245987    0.30256847844837   -1.44658278263863
H           1.37695425493536    0.27892593923147   -0.50469291862177
H           2.23787477932257   -1.70975616921983   -0.79707263303549
H           0.81587465127904    0.08892127134059   -1.93098100384424
N          -1.42151806417436    1.46930180391836   -0.37662033865751
H          -1.24085290860635    0.33492364245415   -1.35874257223070
H          -1.26253149526233    1.19010348116066    0.58857601759979
H          -0.70311132946375    2.16370996481607   -0.60547743327377
H          -2.31915982673886    1.93636475911389   -0.41446114341271
