    26
        -50.44784099  Gyration_radius:  2.45206638978 Dipole_moment: 2.556
 S           0.61517290380985    1.87175861189895   -0.63067005395045
O          -0.56540665247593    2.55580684303502   -1.06562023604835
O           0.50215705246188    1.17546054084125    0.63946889371727
O           1.16939893404460    0.97534317189688   -1.65535416795555
O           1.73220077732246    2.97839124506190   -0.38311679412002
H           1.56350929647159    3.62936409145510   -1.05746873567191
O           2.34550584043762   -0.43651357135714    1.59767681423797
H           1.85053386844176    0.38545010811363    1.39188322091861
O          -0.29138074370735   -2.19904335939089   -0.71133909132730
H          -0.50614115568496   -2.87296557164973   -1.35714955423565
O          -2.89703967505522    0.13742628697751    1.43386643737872
H          -2.17098012635403   -0.38407162235220    1.82151036415854
H          -2.72311554043233    1.05056191129839    1.67033039165487
O          -0.44009359159326   -1.05543483690288    1.87461673170449
H           1.73990685770165   -0.94692783187184    2.15315746131416
H          -0.19741009014620   -0.20600638995876    1.46470930100147
H          -0.49251817584963   -1.68838098169560    1.14727845732172
O           2.01910224928388   -1.17524552115916   -0.81177076568970
H           1.11934138458671   -1.68600586049191   -0.78225451925430
H           1.73061546809224   -0.23098528748960   -1.22722222717235
H           2.27101537022924   -0.96386662032480    0.16885910487605
N          -1.71210269944521   -0.11865840480412   -1.17241430213570
H          -2.30145159791057   -0.14002992653601   -1.99554819964546
H          -2.32599371452489   -0.03005732399763   -0.35637734717894
H          -0.87751386870024   -1.35826367864461   -0.94138548645172
H          -1.15731235098780    0.73289396805533   -1.21566571744798
