    26
        -50.47126454  Gyration_radius:  2.39783436868 Dipole_moment: 2.931
 S           1.16561000520118    0.90215858261665    0.01822973970250
O           0.47783296002253    0.69877235857681   -1.39405425599984
O           2.58990540060448    0.80516411139410   -0.15921158436893
O           0.68117559750321    2.19755239954079    0.46230168598443
O           0.63536663524620   -0.17796495618175    0.86481332339941
O          -1.09715699787885   -1.76892558179817   -0.42431962317181
H          -0.54273998399075   -2.12754939341245   -1.12557653590047
H          -0.48770518782535   -1.26284699272969    0.14876824746436
O          -1.07507817089042    0.28487587856516    2.82503556909019
H          -0.40238364070400    0.00379893790342    2.16366828064159
H          -0.58395856783816    0.63300331939211    3.57071836543797
O          -2.31391385970782    0.40426462417305   -1.32199249427945
H          -2.06992628719311   -0.50043683306789   -1.00503338187251
H          -1.53262617804316    0.69875124443907   -1.80703714755664
O           2.78550427241803   -1.78639051777750    0.07653074160299
H           2.19705031782290   -1.90848996309159    0.82731198408487
H           2.91635108431104   -0.81105275247496    0.02630311761028
O           1.26963351488630   -1.71448277452382   -2.03704625905699
H           0.77760852084607   -0.19502372988613   -1.69691182437070
H           1.82798571639909   -1.74238305257599   -2.81615643610637
H           1.87556788648698   -1.87627691854196   -1.25751789237660
N          -1.84903759605018    1.86636604115243    0.81762800654964
H          -0.81996205821128    2.11734682275789    0.63704836351814
H          -2.17845095367539    1.28780423035165   -0.01632178446793
H          -1.82778494064033    1.27612046706557    1.67988014161089
H          -2.41886745909265    2.69584444813232    0.94294166283426
