    26
        -50.46047682  Gyration_radius:  2.51681017698 Dipole_moment: 5.320
 S          -1.91103169215665   -0.60826116621320    0.90625137137352
O          -0.63241597850126   -1.24227051826147    0.62617142620426
O          -1.87327158542448    0.38879604974023    1.94543510539899
O          -2.51808387766240   -0.12775498078925   -0.33543739724422
O          -2.85852152929351   -1.76431240438881    1.44791224074230
H          -3.41287036983898   -1.27867048451438    2.04957704679618
O           2.33541751787171    1.01503687939126    2.30201438534192
H           3.22101034469938    1.37956531350508    2.31621517607206
O           0.89495450790969    1.65788524337583   -1.24107807481805
H           1.09972727875094    2.52682089197133   -1.58812990671496
O           0.44477903270533   -2.46616134704743   -1.47020190948495
H          -0.05765949985922   -2.35133426387677   -0.63921972666222
H           1.35235923726337   -2.24635615215178   -1.22390578545182
O           0.05376612478154    2.03504360459827    1.15051609995499
H          -0.70061354496922    1.49691173287356    1.46690364075495
H           0.80587334824508    1.78120418553845    1.71856427797151
H           0.51625888889343    1.81931706506844   -0.31424956184087
O           1.93768623024146   -0.58218883535705    0.13469901618668
H           1.04969709903786   -0.82818630701647    0.45837186880050
H           1.79198444577968    0.18115547566888   -0.44151275777120
H           2.33006036501476    0.31040519697299    1.62226884660802
N          -0.77131608885173   -0.21647614533869   -2.21239466401495
H          -0.12019711092825    0.56531946612134   -1.97379215314314
H          -1.55808335825955   -0.18981013642404   -1.47128126471685
H          -1.15189530253959   -0.11792549405212   -3.14683330017408
H          -0.26761445289646   -1.13775287923976   -2.08686398038775
