    26
        -50.46047705  Gyration_radius:  2.5170700194 Dipole_moment: 5.328
 S          -1.88107226554097   -0.83115478830261    0.78426607903855
O          -1.37028715488796   -0.43743691782496   -0.51930206844672
O          -1.26486300294389   -2.00795636333872    1.34166314481801
O          -1.87211561565011    0.31352403674463    1.69587184828806
O          -3.40876591183441   -1.20694160366085    0.55522976180720
H          -3.53347775932116   -1.87592825601793    1.22003657620983
O           2.15915556397853   -2.39400227839300   -1.17910256950691
H           3.04608769389028   -2.44892589199086   -1.53639832281998
O           1.90220055835840    0.98453385042717    0.70562003978745
H           2.68131565872918    1.19804697533102    1.22018757510007
O          -1.23401853140690    1.83825117634961   -1.88240324466919
H          -1.59771342508803    0.99238754419488   -1.55343560770605
H          -0.45290376468100    1.57423475549947   -2.38525260869420
O           1.33125899906698   -1.44962574398095    1.26901853149100
H           1.64279112804966   -1.95991925232285    0.49740771185347
H           1.65360504550807    0.03785541319077    0.97158446427871
H           0.38771323492638   -1.69005353513672    1.37237422028588
O           0.98080838997187   -0.01445592017417   -1.77388829665440
H           0.14123126865510   -0.30998024194203   -1.37182524991508
H           1.45555934764996    0.43527172804545   -1.06088318171528
H           1.73492538436406   -1.61447634214606   -1.59270506198589
N          -0.49321093412773    2.20663342459614    0.64885473818744
H           0.48987698266169    1.86032825831880    0.72355701698738
H          -0.77523629496600    2.23190393670382   -0.36997012836795
H          -1.11311848522578    1.45879786885844    1.12372739816647
H          -0.60974611014558    3.10908817695729    1.09576723418776
