    26
        -50.45868859  Gyration_radius:  2.42576176743 Dipole_moment: 6.972
 S           0.61916726340749    0.50973929796849   -0.68619652887436
O           1.85528326013328   -0.18355982589353   -0.44677729011184
O          -0.54210252119896   -0.12935146960244    0.14864863650104
O           0.66716795431284    1.91174870360567   -0.21555195406720
O           0.13750054930594    0.41578233910994   -2.05617603730820
O           0.57840039305177   -2.26629922449646   -1.73540061853355
H           0.35226512006315   -1.33838223572449   -1.90874138639656
H           1.52742332624446   -2.31369549223478   -1.87893171532321
O           2.37674985035262    0.82667281937953    1.93319440328510
H           2.42652590177591    0.39254409838422    1.05803995957557
H           2.06787523045462    1.71468952972784    1.73645938272965
O          -2.43368313250140    0.64740349795826   -1.82640324787178
H          -1.48193817609399    0.55888231933019   -2.09370746913232
H          -2.63601891685010   -0.18638601957033   -1.39336691126432
O           0.69601171885638   -3.07091169997454    0.90438138232426
H           0.00744000110752   -3.73651872738573    0.94420997362902
H           0.67262106516947   -2.71668554079334   -0.00706822888363
O           0.33517702445767   -0.85462315361188    2.38678869468872
H          -0.22258414377211   -0.41490543854319    1.09166013547397
H           0.60755047869084   -1.73573410781331    2.05310144455344
H           1.15166818734623   -0.31035672563232    2.43897935228098
N          -1.78348252527903    2.48363893176275   -0.07439088516336
H          -2.01577466019659    3.43417426021776   -0.34374479193835
H          -0.67425645196522    2.31220486733888   -0.12147820064635
H          -2.10949720258205    2.27949357530343    0.86526007483269
H          -2.17948960429196    1.77043542124826   -0.77278818438523
