    26
        -50.44706766  Gyration_radius:  2.4842873919 Dipole_moment: 6.052
 S          -1.23912896223363    1.39946242668102   -0.71618160693172
O          -0.07530640398757    1.82638930136630    0.08983021080370
O          -1.03385561460958    0.04789172650263   -1.20987919998937
O          -2.48102456670945    1.62574482693352   -0.04571858966040
O          -1.21474882014870    2.32681121885612   -2.00330698458341
H          -0.57877359454655    1.91666182783331   -2.58296342640490
O           1.03582227214734   -1.73315985147802    1.19907573995829
H           1.39102849746209   -1.94835357980273    2.06255160847021
O           2.34112981102944   -0.33579955211135   -2.20733552876684
H           3.17133956388749   -0.75766017658933   -2.43472040711451
O          -1.54738059963807    1.76374796779875    2.48334421462216
H          -2.10908642891341    1.84794237987368    1.69303556948617
H          -0.71965925607116    2.17763839677214    2.22326903503837
O           1.92856955762413    0.42264407423932    0.19832483455067
H           1.05214859924656    1.06611529740236    0.15177186063799
H           1.60197103209757   -0.46004554735336    0.63037359669972
H           2.16323593358044    0.20145364647204   -0.77091782755222
O           0.52444919562879   -2.09013711335797   -1.58676433030890
H           1.65723564560371   -1.06216923800229   -2.13327236724181
H           0.70438517026227   -2.31077887718953   -0.66343539811818
H          -0.18882994456946   -1.42571213359923   -1.55189594682397
N          -1.35747202969894   -0.89511522858524    1.47173532351232
H          -1.40288374035626   -0.06420207360001    2.06864266791348
H          -2.10128601922582   -1.51987879345655    1.75632256446631
H          -1.55874120483220   -0.57597601734027    0.52675218292086
H           0.03686188712642   -1.44351490859033    1.35136220439546
