    26
        -50.46846763  Gyration_radius:  2.3993866529 Dipole_moment: 5.642
 S           1.38487998988308   -0.42153231650483    1.10304473750608
O           0.71595919253473   -1.13476689953626    0.02090670932940
O           0.55509595244748    0.74107498128123    1.50293759268059
O           1.68422570255915   -1.27588867217655    2.22015885079159
O           2.71245586361064    0.16280272704785    0.53288371623680
H           2.46979976539504    0.61610049285515   -0.31009941432412
O           1.94429988446002    1.51998650505284   -1.62548100717986
H           2.58132428659259    2.22382600472638   -1.75989117636972
O          -2.12701126275799    0.41925945621930   -1.23422033909786
H          -2.87071356323209    0.30530488613925   -1.82714867952409
O          -0.49838075280531   -2.73249518993033    1.86135149706420
H          -0.25142265128348   -3.11072410880106    1.01206914867625
H           0.32937360916370   -2.29440648694758    2.16832538739172
O           0.03168108423239   -0.44585774374650   -2.39459915070843
H           0.34400540540197   -0.84967989317255   -1.55301321853329
H          -1.32425936556278    0.07676171536079   -1.73076411665258
H           0.68681546513822    0.23803963907775   -2.57638286473351
O          -0.20232641606893    2.38665109661242   -0.41851882128450
H           1.12963073494203    1.94630049909267   -1.23617549461915
H          -0.98276940150334    1.91445397431821   -0.73974061823310
H           0.07735326164673    1.90857481078526    0.39268125564553
N          -1.71902338529779   -0.44217392158076    1.32215978698849
H          -2.46571199068559   -0.18989713653674    1.96125266556231
H          -1.38326171968567   -1.43779226574117    1.48303574033657
H          -1.98824458452084   -0.26692281861338    0.33068913809657
H          -0.83377511459988    0.14300068471458    1.49453869495260
