    26
        -50.44706778  Gyration_radius:  2.48423347237 Dipole_moment: 6.050
 S          -0.73238864201535    1.41568386364687   -1.21049666752988
O          -1.12173656430953    1.11734821695247    0.15773622009728
O           0.61970233735290    0.88115080056573   -1.48003712497306
O          -1.67877390949029    1.04000428141010   -2.21349856986026
O          -0.57402262431516    2.99322992262473   -1.26926488786879
H          -0.23389135484866    3.23263194523046   -0.41154239893407
O           1.66602644209262    1.55985021885289    2.29258378533789
H           2.23403210654930    1.48293579073747    3.06090719118189
O           0.50036297558745   -1.98842558459619    1.14504512863778
H           0.88453677896145   -2.85722166499402    1.01996523440698
O          -0.36859257944960   -1.09748699327140   -3.21438069110431
H           0.50035876991228   -0.71109849990484   -3.07387096627405
H          -0.97818287264025   -0.34653034262342   -3.10674576873202
O          -0.54491237432349    0.22768153852682    2.61053429300866
H          -0.31393920841161   -0.68427953647421    2.39020226765622
H           0.78390669973690    1.15986564793890    2.54272369896983
H          -0.94708805083299    0.58814650010811    1.79825776117434
O           1.95302957440910   -0.06705149533748    0.34209991399171
H           1.93134685060771    0.62799085246462    1.09016719601918
H           1.39734200574445   -0.87484459971351    0.67510324598126
H           1.38066481494426    0.36220388469122   -0.47822537033787
N          -1.33795507056065   -1.63635450775950   -0.58758910078045
H          -0.28292426425536   -1.90567612974250    0.44911732250362
H          -1.55561822297524   -0.65336113199837   -0.44024376760205
H          -0.97725014299609   -1.70786379495841   -1.54336896045649
H          -2.20403347446065   -2.15852918240079   -0.54517897449634
