    26
        -50.46047701  Gyration_radius:  2.51704636107 Dipole_moment: 5.326
 S          -1.97881584323790    0.88747533080278    0.37599687775524
O          -2.04308184301076    1.57216095139344   -0.88985580157941
O          -1.42522634363504   -0.45593297540115    0.31280345526235
O          -1.30481375867464    1.66156764127667    1.41897936297713
O          -3.48532143096707    0.71314625856186    0.85272864685126
H          -3.90109002865769    1.44934954603791    0.41660565415893
O           2.17800571767965    0.57507914485461   -0.11878672982279
H           2.98383925195073    1.05800007193332   -0.30543125357739
O           0.48352266717090   -0.91112460943199   -3.27433466742550
H           1.18173415586699   -1.26483215608406   -3.82638839950713
O          -0.19951355512977   -2.07217224873679    2.02740109723783
H           0.28852738483798   -2.54689027791525    1.34243792826326
H          -0.93183892348647   -1.64544803087119    1.53991518857919
O           0.70442640541060   -1.76737046289282   -0.70046951574468
H           0.50906519057734   -1.40894548807095   -2.43166515582287
H           1.39175932769079   -1.11418168064196   -0.50841634101307
H          -0.13532131109486   -1.32808774368376   -0.46454194561519
O           0.44455996202626    1.41740258383963   -1.80847337256544
H           0.38712157997130    0.70776221144766   -2.47621337807108
H          -0.47419730854615    1.55431981642744   -1.49885351226163
H           1.48462400526065    0.94918222156095   -0.75738145583238
N           0.79230977771354    0.39444134418358    2.17943652850493
H          -0.09561217239008    0.95634008449809    1.92475207633892
H           1.20038331822606    0.73571941189238    3.04241748921815
H           0.49852197061511   -0.61852452436625    2.25575685332159
H           1.44643180393986    0.50156358928052    1.37158037034367
