    26
        -50.45932268  Gyration_radius:  2.40735792469 Dipole_moment: 8.391
 S           0.33963326525354    1.16286536967884    0.35610240349337
O          -1.11399325821384    1.03674490362124    0.18340050477815
O           0.95628035300729   -0.17643165380313    0.25678484239792
O           0.91738459945546    2.04013251855851   -0.73641373422623
O           0.65354106041283    1.76581544885757    1.64642744646445
O          -1.74440443119459   -0.13553461587719   -2.16764159963454
H          -1.70848631813069    0.37178654114211   -1.33683552169871
H          -1.51884466086446   -1.04243710502194   -1.90614633013290
O           0.14028565440554   -1.50230514475604    2.38467719343398
H           0.90373593061752   -1.74654083261025    2.91062654770400
H           0.49992811997717   -1.04863340830398    1.58405133648901
O          -0.63469743513948   -2.18243371887187   -0.70937683612978
H          -0.83287526469936   -2.68813666078254    0.08032218280056
H          -0.00681152764398   -1.49190175428201   -0.43559833119828
O           2.45189575579702   -0.58956651988435   -1.95064367361410
H           1.98409922042982   -0.52176656385950   -1.09681058541048
H           3.24305393108563   -0.05462710730353   -1.86780406895062
O           0.50193934541473    0.97535576067004   -2.94056413596538
H           1.17745979848183    0.26919333573222   -2.86648326606621
H          -0.38691495104376    0.54044751796017   -2.82668640823130
H           0.71528162951591    1.64630167455611   -1.71093553228916
N          -1.35564351198535    0.66946563883668    2.68713768362664
H          -2.02911685268899    0.97266939460022    3.38168463728554
H          -0.98687446734311   -0.29710985944761    2.83122477445199
H          -1.68342266141450    0.73644875390496    1.68404376004756
H          -0.48243335349240    1.29019809668529    2.56545673057384
