    26
        -50.45450929  Gyration_radius:  2.45162000585 Dipole_moment: 5.294
 S           0.58527998860215    1.81041412073884    0.86019134462809
O           0.61211303700121    2.37679579741735    2.15992169862335
O           1.79179118865393    0.86634345896985    0.72354832317656
O          -0.62737865555876    1.09267686650322    0.51147314584052
O           0.81741850944970    2.88635503015091   -0.22292593443047
H           0.19891284165074    2.70310974501568   -0.99427123479520
O           0.15454534429387   -2.49143050496859    0.77203825950227
H           0.51711244318401   -3.31468008586607    1.10157839170006
O          -0.53177504886873   -0.37326991689592   -2.69317819145522
H          -0.82651381242179   -0.79487856278467   -3.50116079732997
O          -0.93096263814276    2.22515874267755   -1.99505109891442
H          -0.68585843145645    1.36269209034862   -2.38648009090433
H          -1.58887806481375    2.01965183865613   -1.32252220799035
O          -1.83333239700664   -1.07646893785957   -0.54923325640227
H          -1.33117240882513   -1.78937710156909   -0.12663637520353
H          -1.56255020442857   -0.27405607221820   -0.06955989452298
H          -1.12734369312800   -0.69519243529676   -1.95713833058547
O           1.53139046922187   -0.95985483203349   -1.00009697573940
H           1.06791198920493   -1.61383749171698   -0.43631240614626
H           0.90628853420863   -0.71143950729609   -1.70551662705324
H           1.71191287353824    0.16803993008317   -0.02756619352122
N           0.23098886162523   -0.64251857014764    2.69276383531871
H          -0.11772819892065   -0.74465777106276    3.63869497529184
H          -0.31358857342118    0.08617232064631    2.24219381656388
H           1.17365452532491   -0.27430834507723    2.75243308140690
H           0.17776154102875   -1.84143978641141    1.53281274294357
