    26
        -50.46846765  Gyration_radius:  2.39936796225 Dipole_moment: 5.644
 S           0.27203148940755    1.79432647271156    0.14029399510328
O          -0.60636886165380    1.34620293892824   -0.96768450872905
O           0.94066138133472    0.63382987297682    0.71769649544733
O           1.20039415317186    2.80560664762354   -0.28724029784685
O          -0.66815224080087    2.38843785260187    1.23220930430138
H          -1.18048548279833    1.62558047387258    1.59340564483053
O          -2.13735631994134    0.31030812875602    2.01644398362744
H          -2.97551069671099    0.65618706436478    2.32807958021148
O          -0.12791894133074   -2.44059238512132   -0.49893592480140
H           0.05397059822828   -3.38101003808852   -0.48601730415118
O           3.02641167840448    1.01982342892563   -0.98951065539217
H           2.47050485099309    1.81612112947583   -0.82128524127333
H           3.20738906859646    0.68097427215052   -0.10749559537679
O          -2.32008204846022   -0.58916811513867   -0.42769578732171
H          -2.31098674689411   -0.08243069929972    1.11504337652826
H          -1.79676477608304    0.18279442404052   -0.73595119783045
H          -1.74329854488258   -1.35608388721024   -0.54789245805921
O           0.05829872844438   -1.50156349829325    1.91719539652742
H          -0.77188248793900   -1.17109056123278    2.27997557064854
H          -0.04851981237028   -2.13190623555967    0.45327179434559
H           0.50745479560260   -0.69025194340477    1.58697700500344
N           1.00284884100903   -0.41149398075725   -1.92942333324681
H           0.27196972528307    0.33047957925599   -1.66305036989170
H           0.74145822057767   -1.27172444902197   -1.40213867450819
H           1.02013584080222   -0.57865067756140   -2.93012482782262
H           1.91379760800883    0.01529419500051   -1.58614599032144
