    26
        -50.44005312  Gyration_radius:  2.70229056822 Dipole_moment: 0.878
 S          -1.97883052763953   -1.11111026058889    1.30037581149718
O          -1.87294106455915    0.30076667279034    1.86720769592724
O          -2.47527021929706   -1.05504423969377   -0.04663247599847
O          -0.79073484043421   -1.86179016957131    1.52714564535690
O          -3.12802618746343   -1.72012312063653    2.19202217937094
H          -3.92802349184403   -1.31398597390248    1.86800889290131
O           1.35675262499699   -0.36856783128878   -0.65936259790904
H           2.01453091902404    0.25678494758433   -1.01003496449962
O          -0.41693672072372    2.57627559042753   -1.23526170105302
H          -1.12454192120769    3.18605640469871   -1.44412172988559
O           2.26669123411621    1.90874812673404   -1.85410545216857
H           1.42373552934694    2.31219757328489   -1.59250157925332
H           2.23854342775499    1.83355863742482   -2.80943033216455
O           0.23098824890098    1.28557942946858    1.04338093264665
H           0.67326069094631    0.57763856928129    0.49851284154520
H          -0.02285302704670    1.96065061531653    0.38115532343617
H          -0.94494025010398    0.74394246031197    1.55894428551127
O          -0.98168896801615    0.13179584161391   -1.97006773619624
H          -0.13150879617852   -0.24893141108927   -1.69119664652694
H          -1.63891837121402   -0.29892074174265   -1.39588321798097
H          -0.69697400061424    1.68235960606285   -1.58529116879149
N           2.08441325629745   -2.25138354315477    1.08750551041144
H           1.80124425304902   -1.06756567767855   -0.12186815533414
H           2.33550077786921   -3.19826967985118    0.83216698597406
H           2.60895911691553   -2.00525506179965    1.91792042783822
H           1.09756829681308   -2.25540676374080    1.34141120533520
