    26
        -50.43975754  Gyration_radius:  2.7128438211 Dipole_moment: 1.605
 S           2.26093053276293    1.26407742149019    0.43991105391626
O           1.54112070491594    2.16310430068906   -0.56280411192918
O           1.63201321065899    1.34611650827452    1.72513138153290
O           2.47856796388481   -0.03802654380467   -0.09896433989904
O           3.65937889973126    1.98476803186485    0.54215941338533
H           3.48886750825294    2.78470750845844    1.03313008149474
O          -0.69813851388017   -0.70058239039422   -2.78206739347584
H          -0.30222826830080   -0.70083819964489   -3.65357559835691
O          -1.03322646182790   -0.91279097911543    0.70398706797319
H          -1.91235991029018   -1.15165102794597    0.36336711259662
O          -2.86818481898040   -1.61888098197911   -1.19074632060469
H          -2.27550159729271   -1.21124264163538   -1.84149070538240
H          -2.84201067978458   -2.56135809373987   -1.36458678342266
O           0.79091174860872   -1.95672666156950   -1.03829684675381
H           0.18460711680541   -1.83553111837250   -0.28802705099733
H          -0.09214884306929   -1.23652717827461   -2.19344749221497
H           1.55311638493450   -1.40055024861459   -0.80964616424792
O          -0.70531633033926    1.18296796029120   -0.85336685392850
H           0.55506083638922    1.78243813127454   -0.70435156991886
H          -0.73767630398329    0.70377043013646   -1.70684707786642
H          -0.79791313005728    0.45883545116789   -0.17619013696727
N          -0.81337077926769    0.38046373189098    3.02647028570045
H           0.07170038281810    0.74901000700123    2.67910388654257
H          -0.62057188233455   -0.09744906192353    3.89787264903262
H          -1.41048708778524    1.17170992016961    3.23323078035243
H          -1.10714068464835   -0.54981429427242    1.62004473353014
