    26
        -50.46564548  Gyration_radius:  2.5385566035 Dipole_moment: 3.631
 S          -1.13465461437168    0.98447856388975   -1.40330728721667
O          -1.04139730984276    2.14158625145965   -0.52822226089897
O           0.01545380220238    0.85526029069125   -2.28318127687420
O          -1.43545366704329   -0.24287518432472   -0.68496189741212
O          -2.39438079675289    1.22904206873593   -2.34109682165739
H          -2.19702987818121    2.03454051477308   -2.81017837876593
O          -0.27130162431956   -0.19585248573224    3.02849125249951
H          -0.68652284903244   -0.98712685617587    3.37462147974518
O           1.66853775379173   -2.54529523351496   -0.18507084277815
H           1.26903256496546   -3.35246928511491    0.14231742833847
O           1.54555663325178    1.71557822928879   -0.32547317941547
H           0.70209924550968    2.16224647096143   -0.12529565343254
H           1.35770511697550    1.36322765613090   -1.21522328308482
O          -2.16068671662176    0.88287521321129    1.58129051226063
H          -1.90067638729859    1.73045885535015    1.19514203620747
H          -2.08288477265684    0.28253327474447    0.81373566145286
H          -0.99626312901620    0.29274458055949    2.54694726691057
O           0.07657432316040   -1.83884316063039   -2.13319990441794
H          -0.64080593076913   -1.47285089269138   -1.57919718575459
H           0.38462775188847   -1.05082212642339   -2.60154865301956
H           1.13871645392552   -2.29842152088168   -0.99405419806547
N           1.76400426266797   -0.34395003117394    1.31421911171188
H           0.96114017967213   -0.31001381800572    1.99866347007229
H           1.72063342737549   -1.22965906268870    0.74163053559054
H           1.69224049894091    0.49384925003192    0.65778903107071
H           2.64573566160715   -0.30024155244822    1.81516306693435
