    26
        -50.46564542  Gyration_radius:  2.53834783702 Dipole_moment: 3.632
 S           1.68217147312128   -0.97801366927603   -0.65985911626822
O           1.88037731516780   -1.37277978527754    0.72522344739971
O           0.77261917935963   -1.86360897990751   -1.36823134708984
O           1.32791279643665    0.42456834838852   -0.80129127305864
O           3.09496489368152   -1.11704363839498   -1.37463746603747
H           3.32789496169214   -2.03608532048742   -1.28002500815428
O          -2.46465103479360    0.99918689695591   -1.49294304613967
H          -2.49014264639735    1.92971223466690   -1.72048720862199
O          -0.42913242447060    1.90888658406475    2.33452318142390
H          -0.43534521154346    2.84520836998101    2.13066413337802
O          -0.64984570411487   -2.07964673859077    0.83306048952599
H           0.24411488771275   -1.92493350776693    1.19074570227693
H          -0.44539955411458   -2.23033960804374   -0.10845070655690
O           1.97801421956968    1.16495942372718    1.63997107168633
H           2.15233081862929    0.23304151709348    1.83065771987260
H           1.82336107736479    1.14493550212094    0.67504890726701
H           0.50895318962173    1.61020415523883    2.17124526088253
O          -0.37135113689074    0.12460560745788   -2.78931625581495
H          -0.24462586607298   -0.82951610643925   -2.69485290849658
H          -1.73126009267012    0.61227279222664   -2.04863620241760
H           0.30717159136112    0.47605491987463   -2.17977327666475
N          -1.97815191231644    0.19757458417737    1.00177094848923
H          -1.45532536296830   -0.73036347757255    0.94310682882596
H          -2.85125353645751    0.05723953932849    1.50007396109331
H          -1.37806528066464    0.89457772607669    1.51970127809269
H          -2.17533664025014    0.53930265037545    0.02271089510780
