    26
        -50.46564548  Gyration_radius:  2.53852517233 Dipole_moment: 3.630
 S           2.00369315174790    0.45506078063698    0.05098161929728
O           2.19256419425984   -0.86431900514526    0.63151551540533
O           1.94933277521986    0.42380928730573   -1.40155646859927
O           0.88855816087785    1.17639784709849    0.64161986461789
O           3.29035286681123    1.30531516914883    0.43579345203280
H           4.02168507125308    0.83178938618088    0.05011126031728
O          -1.85730838660533   -1.14664448804895    2.12626811103227
H          -2.40695687440003   -0.52145950379876    2.60101472454149
O          -2.29855888586572    1.20626596561071   -1.60068272225921
H          -2.85521972086273    1.84471157963743   -1.15248979884597
O           0.64929683242922   -1.85665171420976   -1.25235158714627
H           1.04265371714428   -1.08752532107530   -1.70495540899416
H           1.19266258379110   -1.88878254130296   -0.44325316134660
O           0.05602503799350    2.33945710864333   -1.56866278605472
H           0.72569372143240    1.82424471960573   -2.03920939602970
H          -1.40922221907040    1.64996876286179   -1.69167384119760
H           0.27402483490290    2.14360310829101   -0.63616204028212
O           0.56798470694102   -0.38786748491919    2.73439858162377
H          -0.92251061579422   -0.94611466859896    2.41284690479264
H           1.24800018088849   -0.96281881379146    2.35739425365694
H           0.60636473020387    0.38426910907322    2.13611532514788
N          -1.80424074519186   -1.18755382478439   -0.53786686794689
H          -0.82007596683438   -1.47249524871207   -0.83481891344722
H          -1.84633604310793   -1.15663234427607    0.51649753187168
H          -2.01962470213850   -0.23645624883202   -0.94163995011519
H          -2.46883844603384   -1.86957159660138   -0.88923422204303
