    26
        -50.45450916  Gyration_radius:  2.45199260797 Dipole_moment: 5.291
 S           0.42892293738270    1.37139115473308    1.51615977789840
O           1.11438668458978    0.59680759495588    0.49765134944123
O          -1.02868912964604    0.89235698330793    1.62347007646604
O           1.00457705865584    1.33021453520025    2.81148654489328
O           0.31772215090689    2.82287270818167    1.00114376625194
H           0.55646479220923    2.83490512684099    0.02455522821246
O          -0.84598512281217   -2.47371225866467   -0.00572869074647
H          -1.37703664709794   -3.24762999656572    0.18604936844427
O          -0.47599811999562    0.66392026546825   -2.64515100822243
H          -0.61777316259855    0.55927984623050   -3.58664931497496
O           1.06254114079313    2.56303047131908   -1.45129088046510
H           0.40516654761877    2.02444187389122   -1.93602001639014
H           1.76572451071634    1.94970075797989   -1.21331719791422
O          -2.00227953803064   -0.06557354882959   -0.49975288165711
H          -1.44495651811268    0.56746518693106    0.74061294279781
H          -1.57078275469674    0.29744369799169   -1.29481248988325
H          -1.67430623319261   -0.98381860525617   -0.40121975033834
O           1.03922272124652   -1.15288535003041   -1.55557330098108
H           1.24726959587126   -0.58328824709726   -0.79427831105191
H           0.45535553149804   -1.83534620459731   -1.19177910686111
H           0.14429377548603   -0.06568694150394   -2.35657729868701
N           0.34936581130789   -1.62719830302434    2.22266205607656
H          -0.39638128994946   -2.21332887608701    0.84978706785064
H           0.89578457216348   -2.19135157907435    2.86290260587580
H           0.96958101927508   -0.93012030037296    1.82264161418517
H          -0.32219035358918   -1.10388998192650    2.77302783978031
