    26
        -50.44781910  Gyration_radius:  2.50180268493 Dipole_moment: 4.219
 S           0.37974427868425    1.88489363356672    0.48816340895465
O           1.70292009592590    2.29298946678858    0.88043369410476
O           0.30952475516920    1.36158500334188   -0.86499600582468
O          -0.26032934609245    0.97761715817810    1.44365461389125
O          -0.52579783389575    3.19119259503239    0.51928172833962
H           0.05360913157567    3.86797412511914    0.18397156990761
O          -3.14617756344426   -0.19459491649195   -1.17231253015438
H          -3.78915555272944   -0.81265208752245   -1.52378523023594
O           0.01916464447525   -2.31382907941832   -0.49785909356102
H           0.20155194974873   -3.16692730297172   -0.10160881980867
O           2.21270932935034    0.23982657063451    2.54020229367021
H           1.31180753008182    0.18523540829585    2.87069156754142
H           2.23350104548509    1.08432436311213    2.05469245208738
O          -0.89814387783490   -0.40837432125220   -2.45766691220824
H          -2.37158245772162   -0.18769421448027   -1.80425726343034
H          -0.42652886445054    0.32597671684260   -2.01749657287816
H          -0.50593819477445   -1.21275433510866   -2.09563583274299
O          -1.67813281110770   -0.92413145924140    0.76745015458444
H          -1.11161871901531   -0.07961792320099    1.07292123971645
H          -2.35100111875432   -0.59307068061800    0.06266460668260
H          -1.00188580858078   -1.53315878966306    0.26398489531618
N           2.01433226842856   -0.77742014950741   -0.11105988043336
H           0.88278537779856   -1.72689733363963   -0.35297334566516
H           1.64019335954197    0.10539796329559   -0.45491066122619
H           2.20875367901375   -0.63697712802918    0.88459241802056
H           2.89569471312028   -0.94891328306292   -0.57814250464854
