    26
        -50.44868439  Gyration_radius:  2.55705576553 Dipole_moment: 2.095
 S           0.35316354935444    2.21449134944932    0.64763253382888
O           0.02720604451749    1.32440759709193    1.76807126734374
O           1.78625070784715    2.31392991858984    0.45377577550962
O          -0.38465568289919    1.86364707715094   -0.54478923663412
O          -0.13747276997973    3.65492715644299    1.07846350044699
H           0.59825134137675    3.96427835867183    1.59673227572226
O          -0.69404582827147   -1.92912301100337    0.19416347611130
H          -0.98223458540544   -2.50987981876477   -0.52441589367444
O           2.67406803015864   -0.06687869097441   -0.06600357244147
H           2.54500457316811    0.89997945783413    0.11404277358838
O          -0.94478924495922   -2.68396347486915   -2.46699119716516
H          -0.48407943648856   -1.84825361233080   -2.62622938689872
H          -0.52605171187073   -3.33972203216911   -3.02607905051012
O           0.59421537021608   -0.36896001881101   -1.63995276312301
H           2.09842162196999   -0.24196365747273   -0.85429724840139
H           0.15229391991629   -0.95305331589672   -0.98870846812966
H           0.22766290008138    0.51762751279257   -1.45782437298060
O           1.16263701363278   -0.89415423970502    1.69651633143229
H           1.94484721450760   -0.61441180084374    0.94655067900245
H           0.67941709151886    0.01759138569762    1.84382691343931
H           0.49748969185281   -1.46188609880865    1.21834761348823
N          -2.34112176642013    0.09283993882022    0.53467680677271
H          -1.42492256636457   -1.25549407725895    0.33958746207467
H          -3.27885852049820    0.16017411959260    0.15949093188249
H          -2.37478525941313    0.33543285982088    1.51729410594925
H          -1.76791170753750    0.80841706694383    0.08611873339102
