    26
        -50.46521640  Gyration_radius:  2.38452629651 Dipole_moment: 4.704
 S          -0.01967991532831    0.10537270592670   -1.72885605180467
O          -0.92071598905208   -0.23801902775742   -0.63344827719863
O           1.44773756687653   -0.06544897878927   -1.16443171451812
O          -0.11046768312696   -0.91177766850227   -2.77539994937013
O          -0.17038890537849    1.47039150388072   -2.17159079928342
H          -0.40372302146985    2.45360425546392   -0.91172281972994
O           0.36418432212062   -0.16651115744722    2.46799199546642
H           0.31430031161966   -0.23863211139806    3.42156222417256
O          -0.41304887131065    3.02775961985883   -0.10154239098938
H          -0.32192548332410    3.92659414293280   -0.42209846450562
O           1.08401852031071   -2.08815740951872    0.60945133282902
H           1.48277022680753   -1.45836213443930   -0.01716707841312
H           0.75445497508542   -1.52425003678174    1.33492305373946
O          -1.69972862206509    1.10218833119711    1.47991951033124
H          -1.44391769638637    1.99344405466582    1.20709899378612
H          -1.59068378865653    0.57615896677323    0.65837620241658
H          -0.47567679130006    0.28355376955908    2.16876367483326
O           1.68821944318590    1.57284694518123    0.78553431576005
H           1.35023582814654    0.99683300705464    1.49463573412550
H           1.61305330619382    0.63895955736934   -0.45683919597441
H           0.97854811989158    2.21736938220006    0.59067797921796
N          -0.71492068094279   -2.78066064637851   -1.16906465930961
H          -0.01628857125806   -2.59858396872853   -0.37269810632837
H          -1.63775434918327   -2.50409981626711   -0.84259946673385
H          -0.44312762050556   -2.04988657422439   -1.95302986710352
H          -0.69547463094980   -3.74068670182957   -1.49844618541261
