    26
        -50.46232199  Gyration_radius:  2.55712705924 Dipole_moment: 5.335
 S          -0.15181229802582   -0.79712019272463    0.12366591185928
O          -1.40355068972291   -1.49133759733145   -0.45192618605100
O           1.00465083328968   -1.34836050342986   -0.59330563168227
O          -0.28461055218037    0.64641426498134   -0.12030482565108
O          -0.03690854614170   -1.07700075222816    1.54299385922276
O          -2.57780762704688    0.17678659903565   -3.30569357642878
H          -2.80621815625791   -0.71525449489684   -3.57215155215062
H          -1.59868512556763    0.20245432662774   -3.24618628019177
O           1.73508241042251    1.67458163747596    1.27146128492008
H           0.99141124227454    1.47462201161604    0.66187806983717
H           1.33027540601947    1.61937442680726    2.16364960960289
O           0.42963633056402    0.73662484685135    3.39565421923151
H          -0.39740895328376    1.05799421929576    3.75727107643274
H           0.18853308513407    0.01061485036541    2.77602568820528
O           0.06065478549994    0.12929574761390   -2.72319239700218
H           0.49626143287898   -0.69606054442587   -2.48139608321955
H          -0.02486495608426    0.59157423080010   -1.87258737996982
O          -2.96117615086177    0.50059148503105   -0.68729417541548
H          -2.14420934413446   -0.79712710522756   -0.49691881387607
H          -2.20808996663563    1.05952004747903   -0.45099218688366
H          -2.99893636915738    0.50370239718549   -1.67384051884146
N           2.71620580245651   -0.70844406071113    1.20807888163039
H           3.70891107149826   -0.87747894087803    1.08052735263644
H           2.11717713464783   -1.08270849975532    0.39068477767899
H           2.35975012954360   -1.15023473707366    2.05392414389341
H           2.45572907089088    0.35697632753482    1.24997472216865
