    26
        -50.43876725  Gyration_radius:  2.56333447108 Dipole_moment: 1.934
 S           1.99253302307062    1.24778293712577   -0.21594358457238
O           2.91520096463319    0.13968525639179   -0.13938383802524
O           1.07760968487038    1.10120648039888   -1.36689516304082
O           1.26724777122336    1.52903290692642    0.99682756630073
O           2.86003248355689    2.53325291585941   -0.54904238112496
H           3.50987583619759    2.17745171257091   -1.14679363318659
O          -2.02962751018472    1.08234340179823   -1.66769793786767
H          -1.47431315308977    1.73880841323671   -2.09483324340908
O          -0.61555633822910   -1.67587902517019    0.78703867596303
H          -0.91386990827318   -2.58063683951119    0.88880368163625
O          -3.19786458233893   -1.24763451608723   -0.53389643748012
H          -3.29423923092533   -0.81225422045867    0.31566675129389
H          -3.33171240084203   -0.56462389551445   -1.19730395912715
O          -0.36679298393351   -0.85783498352821   -1.61718051073237
H           0.38241316407826   -0.08461118570621   -1.52361424959688
H          -0.49226834942906   -1.26435451851666   -0.68092762191430
H          -1.18633871939853   -0.26414713744765   -1.76071187002572
O          -1.34006050967523    1.02415501238856    0.85796131031799
H          -1.26672231823588    0.07492921008012    1.03370254003498
H          -0.42219339951221    1.35815311761490    0.94302733119908
H          -1.86314605319783    1.19387095568150   -0.68960669542411
N           1.63913242057198   -1.19493085880760    1.93701674384884
H           1.45882881882213   -0.38783560399343    2.52352424400447
H           0.28684825572928   -1.56640486279677    1.26481292024601
H           2.21436024755958   -0.84232390084190    1.16684427734798
H           2.19062277695419   -1.85720076169218    2.46860507333381
