    26
        -50.45634923  Gyration_radius:  2.66538264778 Dipole_moment: 5.718
 S           1.78328155720862    0.31482072399482    2.01386872368174
O           2.87784240106573   -0.19936718225431    1.21863096435739
O           1.07386469079120    1.42172001670636    1.41499872352468
O           0.85978726504605   -0.74655115166820    2.43419374127121
O           2.44665215751301    0.86581257319393    3.35403874054352
H           3.16757909897389    0.25698823867913    3.48252804219185
O          -0.50296547602825   -2.02492114560954   -1.03522315666517
H          -0.12367587996507   -2.90463653695917   -1.03914009251261
O          -0.36586589160206    1.61030728581959   -2.02088440069297
H           0.04279101714556    2.14962331021920   -2.69829042212333
O          -1.36403055439578    1.82335626079155    0.51960097622347
H          -1.14232464127400    1.89597848168753   -0.42415113874846
H          -0.49177122789968    1.89782152579106    0.96379471788993
O          -1.64945512355136   -0.54515812790850   -3.03359790533712
H          -0.80973634831379    0.86607613733126   -2.48022864871413
H          -1.25155272735701   -1.19363123091583   -2.42290354923400
H          -2.59602345210464   -0.56880400490385   -2.88587560686973
O           1.43147258017114   -0.33636528466630   -0.97444661910837
H           1.04020757495694    0.54269212286014   -1.08125723022844
H           2.02625999288039   -0.29236498277088   -0.19448321757952
H           0.28682056786842   -1.39426190834857   -1.02439512474994
N          -1.38141658423613   -0.70265780531643    1.18155361861758
H          -1.21905003574603   -1.30141061469022    0.35050572108672
H          -0.46926465816216   -0.72692142212803    1.76235471349533
H          -1.50581905142103    0.32191070728799    0.88255197787940
H          -2.16360726156361   -1.03005601622368    1.73625645180539
