    26
        -50.44612508  Gyration_radius:  2.48615530407 Dipole_moment: 2.148
 S          -1.89309538812984   -1.15798219253675    0.26165810534896
O          -1.80867113424631   -1.55869677293949    1.64340050911471
O          -2.67014210165486    0.07852877635577    0.07991123422122
O          -0.62421781636562   -1.06413399199522   -0.42147812640876
O          -2.71778660798132   -2.29520605906969   -0.48690336872320
H          -3.46809955541369   -2.42807234812286    0.08449797556926
O           0.59676535247983    1.95724799070393    0.87554274172127
H           0.41125464444243    2.68306886248302    1.47269953520100
O           0.36987560849490    0.76384725267812   -2.78157433105777
H           0.62011847057585    1.43014434170450   -3.42447263309868
O           1.85638371797782   -1.76346507305997    0.03314033322782
H           2.06665907309883   -2.49937670693742   -0.54358020902492
H           0.90210025822474   -1.56779025033191   -0.11979228596537
O          -1.15926390427401    1.69383014974678   -0.97761624176452
H          -0.64322564676515    1.23183343681630   -1.74483669624548
H          -1.86406983790326    0.98871878356676   -0.56862637730405
H          -0.46749033067609    1.82380452758291   -0.23644209535086
O           2.30129787045277    0.70147486772880   -1.01479024216002
H           2.28619799197068   -0.20085159804434   -0.63589280322992
H           1.15650347706261    0.64169618969949   -2.17872104737825
H           1.91238689786330    1.26487300496817   -0.33253342407931
N           0.57121688397473   -0.19863092281502    2.27888740983366
H          -0.32260347914335   -0.67161271006020    2.12366376611769
H           0.57643331632243    1.09068142803661    1.44747051322609
H           0.72411038243024   -0.14161252864055    3.27820508137406
H           1.28736187722679   -0.80231845745800    1.88818267684405
