    26
        -50.46254255  Gyration_radius:  2.39822227449 Dipole_moment: 9.374
 S          -0.86692736111005    1.59256943780676    0.64226240157662
O          -0.12362112086344    1.35534090289648   -0.59301198255686
O          -0.53544667111512    0.53143867445093    1.63158041498698
O          -0.73505884569033    2.90242184829503    1.18176982710741
O          -2.37748817050063    1.32752256014571    0.27365004940562
H          -2.37421209651188    0.53472121238196   -0.29376649201573
O          -2.30251073396933   -0.95552523345705   -1.25146242623131
H          -3.01273402121628   -0.93800318764015   -1.89446792304052
O           1.70996669129969   -1.74733061001371   -0.36591324949090
H           2.48659863172085   -2.30712158515933   -0.33260642785269
O           1.97350983646102    2.71935124423326    0.32272880222396
H           1.46933701860642    3.26475455910882    0.93499050688499
H           1.29042907705919    2.33502815713985   -0.25303598271907
O           2.10696864669519    0.20368274276937    1.28296870200005
H           2.35952744658519    1.07955725215118    0.92584447910571
H           1.19413151508206    0.34352786598779    1.59720441437342
H           1.93065741567973   -0.94086611725767    0.20016927836203
O           0.02832310177393   -0.60372252592208   -2.31456880859340
H           0.06714374958877    0.25921301511890   -1.84998903685121
H           0.71895773854978   -1.12671882345568   -1.88244881107770
H          -1.44581771560837   -0.84061943569438   -1.76827217106324
N          -0.72205969219448   -1.83898764898577    0.76384038521023
H          -0.67223334916786   -0.81479398808853    1.18942563404888
H          -1.46752292516716   -1.81684522584996    0.05419536809041
H           0.20885070083059   -1.99622294840960    0.31008926946111
H          -0.90876888681731   -2.52237215255333    1.48882378865186
