    26
        -50.44612511  Gyration_radius:  2.48615433749 Dipole_moment: 2.148
 S          -0.75843936384487    1.84762443031369    1.00184480386296
O          -2.05494740705117    1.67764485392023    0.32657221120552
O          -0.79856505852357    1.44202299539770    2.38415897063969
O           0.30054661658351    1.24812377127795    0.22416644771420
O          -0.47811048058730    3.41455371806244    1.00102742208750
H          -1.09915112975995    3.74395345315382    1.64364390934178
O          -0.98839300730165   -1.97650229597196   -0.26360018886321
H          -1.72685261676822   -2.55868616843027   -0.08047876914407
O           0.50770716055317    0.48714496632896   -2.82187284519109
H           0.44493210323572    0.18992226190969   -3.73159188830957
O           2.46331898308113   -0.15224845789191    0.68343372484977
H           1.67116236443580    0.42219223112195    0.56171572720035
H           3.22090278039036    0.41137959138135    0.51983203405831
O          -1.66198010509687    0.14304901668791   -1.54465718841733
H          -1.41547727728955   -0.71278102547638   -1.04311382367452
H          -1.85385559957290    0.86543527730878   -0.76858059638356
H          -0.79798544187716    0.41881430397113   -2.04056302162492
O           1.53492876046855   -1.51036905157266   -1.47651369572913
H           0.72438982654349   -1.89565456141204   -1.11774506991974
H           1.01547094820146   -0.21650622326793   -2.32768223051619
H           1.98585082951895   -1.10852370743768   -0.70631682741362
N          -0.02995829793993   -1.23811811216052    2.00659321720595
H          -0.61251397773199   -1.67644989443232    0.65685015967363
H          -0.20519471950898   -1.80547100563915    2.82674861035381
H           0.97513686735000   -1.16987594917822    1.88386033545723
H          -0.36292276748495   -0.29067443793140    2.20226859154018
