    26
        -50.44612508  Gyration_radius:  2.48605860899 Dipole_moment: 2.148
 S           0.85495464530803   -0.56726321465088    1.98463919846578
O           2.08103220926122    0.18981097256161    2.00861133404537
O          -0.25207289114310    0.13118470571214    2.65727518058961
O           0.44729061920075   -1.02038340497534    0.67544101370534
O           1.11938313297506   -1.87912455990399    2.84650412858207
H           1.52913709062987   -1.53867199673475    3.63601822379103
O          -0.80714649154131    1.95626385825303   -0.68886068913282
H          -0.96259028375504    2.88712114253301   -0.52414464978321
O          -2.38623632873931   -1.55736081160482   -0.58151234435624
H          -3.28445643156005   -1.59057896921094   -0.91616619949961
O           1.49796995342813   -1.16917397473057   -1.71696277550615
H           1.67707663607411   -2.09172828939187   -1.90454353238004
H           1.16284227944019   -1.14475247087945   -0.78994386394434
O          -0.98250213535566   -0.30136285166742   -2.40011851312845
H          -1.82075153179881   -1.19724779843795   -1.32160380961445
H          -0.97964765543494    0.58544268040699   -2.01576415636974
H          -0.06408471389395   -0.62378115889130   -2.29750902268157
O          -2.01173428818461    0.41655023362722    0.97423187181346
H          -2.13439142422570   -0.46651317294145    0.45110337942231
H          -1.28302012502428    0.25324909178706    1.75097265330501
H          -1.54916385057719    1.04892575677881    0.31787800168285
N           1.72030255036441    1.55593622126489   -0.42469450047880
H           2.35884976379696    2.33543854770775   -0.52418378916510
H           0.21303026481473    1.80122138969757   -0.57219810196807
H           1.97238787062323    0.85664114468753   -1.11564637826536
H           1.88354110532029    1.13015695897938    0.49117734088165
