    26
        -50.46254256  Gyration_radius:  2.39822314179 Dipole_moment: 9.374
 S          -1.04044125478158    1.57071691122743    0.38818030458307
O           0.09903042992808    1.39126313931975   -0.50852833138599
O          -1.08886328955638    0.44425767480583    1.35945256370240
O          -1.11244805631929    2.84213128883456    1.02260359206984
O          -2.31572063292075    1.36386722915251   -0.51669986323427
H          -2.10762527667627    0.60690869284416   -1.09481445858562
O           1.72666281354125   -1.76154839066961    0.16288848509215
H           2.43879184577040   -2.34035964596154    0.43762858343551
O          -1.69471054179671   -0.82402776769325   -2.05660990823409
H          -2.12461691484195   -0.75106914794411   -2.90986096389285
O           1.72355392628559    2.64792028110501    1.18816309862824
H           1.29463289360181    2.31520261296224    0.38123095479876
H           1.03225414528400    3.16703354718881    1.61141334264710
O           0.86276054601268   -0.46322038891530   -2.18255931140399
H          -0.70915724382549   -0.69816819577695   -2.22113371805387
H           0.73108126562560    0.36892720823445   -1.68037343141598
H           1.35059756806064   -1.02738837255422   -1.56534174317500
O           1.50095678513618    0.07639446902644    1.96673468078779
H           1.72787040831115   -0.99617214943340    0.82147600417856
H           1.86549817577104    0.96609527260184    1.78228425405568
H           0.53624981789358    0.21833452953906    1.93899652408949
N          -0.94925425100173   -1.86440419353160    0.33119214876595
H          -1.38793076166145   -1.78199287915780   -0.59647887615868
H           0.08272466133841   -2.01566148818069    0.23448365195895
H          -1.05660904786713   -0.86924247104559    0.81150381611877
H          -1.38528802131260   -2.58579777597444    0.89416857062898
