    26
        -50.45634931  Gyration_radius:  2.66549548104 Dipole_moment: 5.736
 S           2.59727546509965    0.75995059781576    0.12228110644432
O           2.20106335912778    0.39842508567492    1.48911056459129
O           3.04059789800195   -0.38921983905925   -0.63770838073990
O           1.57956627269662    1.55306647182486   -0.52757915643692
O           3.87850312429333    1.69456082032839    0.27756438440796
H           4.58085723536474    1.05547504000556    0.34850627506137
O          -0.84286256263341   -2.01121987936519    0.81593736481141
H          -0.46559953701071   -2.83257650102013    1.13346144497242
O          -1.63574422070670    0.36209389649847   -2.00123657278312
H          -1.76182601584807    0.32612664448611   -2.94970015088040
O          -0.93546004648677    2.13955974739897   -0.04043425144621
H           0.01937062144636    2.16832590687957   -0.26681398682175
H          -1.32703543487218    1.64565018817663   -0.78060344568900
O          -3.07819722580995   -1.50932339132820   -0.68345524053607
H          -3.74384676683284   -1.17173808822084   -0.08230836865639
H          -2.19971922559104   -0.34024833841065   -1.61320959203235
H          -2.34014926696507   -1.83482486680460   -0.13470121430985
O           0.59128740848714   -1.19848274114795   -1.15354610866148
H           1.52692346212250   -0.93781766255989   -1.00949229263584
H          -0.26064986005868   -1.73388706474346    0.03758038369647
H           0.13903782354042   -0.43069581179338   -1.53202820679706
N          -0.33891220907551    0.45488057123348    1.86330285555591
H           0.73749590494067    0.46341039075666    1.75891457284631
H          -0.70425434887142    1.16173266932832    1.14109991627437
H          -0.65223006942995   -0.50285607907033    1.61795451471859
H          -0.60549181492302    0.70963222311317    2.80710361504827
