    26
        -50.45634937  Gyration_radius:  2.66551238287 Dipole_moment: 5.734
 S          -1.92808768360222    1.87607076386114    0.31872504528861
O          -2.87110557070526    1.14398200284891   -0.49967179842783
O          -1.73214585176427    1.24748738486744    1.63120457071222
O          -0.66495283601797    2.15526864084532   -0.32438163687176
O          -2.61470225005433    3.28371611263142    0.61304545597808
H          -3.53473018726793    3.04539992161135    0.67282819906302
O          -0.19636769518375   -2.23647728297833    0.61935772451091
H          -0.91301848943282   -2.80931176809782    0.89508339124606
O           1.58563173235850   -0.26880968511104   -2.05678897441241
H           1.66654229952760   -0.27495562222249   -3.01083426379215
O           1.83426331865661    1.44259746898206    0.06599065792660
H           1.93618067048690    0.89258648922202   -0.72908149652515
H           1.00367743826324    1.93721397826199   -0.10507574943515
O          -1.10163791789777   -0.67044652057751   -1.20375245665838
H          -0.58837358409644   -1.64857291838648   -0.10350189936675
H          -1.80114091321636   -0.01497341360044   -0.99104613556759
H          -0.34519085774298   -0.17508551833866   -1.54984676328011
O           1.99087035767744   -2.70784840870955   -0.95867836798018
H           1.75634134350749   -1.18524889637089   -1.75187562473282
H           2.74491338442880   -2.77709351398952   -0.37127413272066
H           1.19386832181446   -2.69760928147891   -0.39609010868412
N           0.53811584062103    0.07161829480824    1.87110604658754
H           0.35893707366166   -0.89472892515412    1.54007454710271
H          -0.40808088253777    0.59355744739559    1.82577009093046
H           0.90592143758278    0.08571488412948    2.81516530522864
H           1.18427151091605    0.58594834554635    1.18354837387681
