    26
        -50.46126927  Gyration_radius:  2.53148007412 Dipole_moment: 6.045
 S          -0.95137496802542    1.48828440607026    1.45925421923908
O           0.36404378545034    1.96001167900692    1.83045393515533
O          -1.21344189844666    1.64571145698801    0.03299885840724
O          -1.24957661504274    0.14150547852610    1.92431106837338
O          -1.99375361727501    2.42847856008205    2.20674906121754
H          -1.65494988140425    3.30201270051658    2.03733296982546
O           0.42351738810747   -0.28516028625701   -3.29581411861219
H           1.16512497105296   -0.29245907112932   -3.90173366636719
O           1.90250380312916   -1.08742252778444    0.25419290221347
H           2.80762129948093   -1.39913262380433    0.29032572794066
O          -2.29039868414011   -0.72688204771119   -0.27644024514502
H          -2.07164330219198   -0.63278369661195    0.67780274078580
H          -2.16100436041485    0.19308409150377   -0.57178942322861
O           1.24835911191650   -0.35551333216034    2.63874520082240
H           1.66291828665247   -0.83229375405428    1.19940872539529
H           1.22460453755054    0.61238721980916    2.48801485679362
H           0.29885604192664   -0.55690191510356    2.67064113549829
O           1.07164556630817    1.20757685147786   -1.25083804192019
H           0.63129721227293    0.41178969259472   -2.61329701498402
H           0.25841881778848    1.50393623697371   -0.79276662158679
H           1.50422450471239    0.59525816756576   -0.63978523017074
N          -0.18986854299529   -1.89223970324023   -1.27587596797574
H          -0.30922101801135   -2.88897434211916   -1.41715980033549
H           0.60322426241794   -1.69337896650077   -0.63032024253795
H           0.01260593663158   -1.39398063714112   -2.18154630347179
H          -1.09373264745874   -1.45291362750259   -0.86286472533481
