    26
        -50.44529061  Gyration_radius:  2.48670508575 Dipole_moment: 3.290
 S          -1.04955181002774    2.03438285859981   -0.10604296227768
O           0.14644597616710    1.28147573376665   -0.45045851493502
O          -2.21927587702697    1.39990807301021   -0.73942857015085
O          -1.20687544912999    2.28671176972812    1.29433450434310
O          -0.90482887431585    3.44734854275239   -0.81847865928747
H          -0.79133463035635    3.22011077312566   -1.73681214162062
O          -0.78930941796296   -1.93458222562566    0.80645491098684
H          -1.47817380045657   -2.44723333925865    1.23121496699649
O           0.69402992193055   -0.91972174604023   -2.61490032125871
H           0.75294675350954   -1.65224024482479   -3.23130980372070
O           2.31046884300604    0.57255460154369    0.83006504628681
H           1.49587329800005    0.89858996463514    0.37649860442383
H           3.03264518505295    1.09875101142910    0.48420824047794
O          -1.54065223075082   -0.85878246270416   -1.39401548020163
H          -1.86509369610025    0.14503025808044   -1.13988311756330
H          -0.66744208643722   -0.77845373727449   -1.93616126369391
H          -1.26498496188074   -1.29173650129405   -0.50867462753034
O           1.77366349958991   -1.78706793244610   -0.39726733504833
H           2.09659056976411   -0.99721958027229    0.08190687947107
H           0.97653448507231   -2.05667233820903    0.07867875776442
H           1.21893487071173   -1.18946638511142   -1.80795857184051
N          -0.13452028182801   -0.05099982115537    2.42037531225359
H          -0.57908470697697    0.80676762029121    2.08223596943395
H          -0.53426198928184   -1.17209495170826    1.46968897982894
H           0.86614441049643    0.08484510794790    2.31789343170399
H          -0.33888800078103   -0.14020506899499    3.40783575515494
