    26
        -50.44529061  Gyration_radius:  2.48653518094 Dipole_moment: 3.292
 S           2.27759918159664   -0.16854541824758    0.18440700793735
O           2.24496669665796   -1.44532746190404   -0.55083096059450
O           1.16654746078347    0.66228089347150   -0.25276182871381
O           2.38514605993272   -0.31309550328246    1.60457741478066
O           3.59929313975920    0.56293179673668   -0.30864738437090
H           3.46847943132506    0.64334194466756   -1.24897143939489
O          -1.55458313599429   -1.53230712972433    0.50020911370267
H          -1.80525805288629   -2.39401899537086    0.83552366793115
O          -0.76527278904386    0.46428459993874   -2.71338175565166
H          -1.37353153459674    0.27775172328042   -3.43118632948652
O          -0.49868638629273    2.28790322125823    0.93447323399278
H          -0.25881070606113    3.17972218798088    0.67910748239648
H           0.17828315143767    1.69693612509864    0.52453155347011
O          -2.27197346933555    0.96457110656405   -0.63603208573999
H          -2.26569198754685    0.09413461948741   -0.21538543692629
H          -1.74390080692004    1.53436736094329   -0.04086695924765
H          -1.32381132628999    0.78540220325312   -1.94893614995428
O           0.00924648584342   -1.65167105389849   -1.52555033405552
H          -0.19014694255515   -0.77996731576343   -2.03863612327285
H           1.01660900467681   -1.57840265684232   -1.12926416578399
H          -0.60960032542398   -1.62810131435759   -0.71078005772978
N          -0.31200336494791   -0.31240201211255    2.38411401279399
H          -1.04885779077101   -1.04833263215592    1.27247723927214
H           0.68793849183938   -0.36476846468810    2.17176365126905
H          -0.56910898985202    0.66708873491188    2.31533212276343
H          -0.44287150533776   -0.60377654923198    3.34471451060847
