    26
        -50.44529060  Gyration_radius:  2.48656802675 Dipole_moment: 3.290
 S           1.86005536361757   -0.14709310125836    1.32991763525363
O           1.59768409156901   -1.58164092876953    1.54219867524530
O           1.34274831060554    0.24506290450894    0.02821059516881
O           1.43884018147047    0.69153406684581    2.41095913704232
O           3.44129282290110   -0.02194077739490    1.23493489166037
H           3.66280597419863   -0.58499763321704    0.49892819148987
O           0.38668716403553   -1.42753300815773   -2.44472376076463
H           0.02135009453740   -2.00789519697882   -3.11535154457774
O          -2.08278440196282   -0.69717835906018    0.43741322827962
H          -2.72850068571483   -1.09310796844770    1.02402635214594
O           0.10971680973726    2.34929867359519   -0.90832874459619
H           0.61336881433000    1.59433650642232   -0.51854277268432
H           0.73145862345840    2.82161272885247   -1.46363996632730
O          -1.41399217848400    0.43197530688303   -2.07634774488378
H          -0.93653277227099    1.21824765033808   -1.74232126897953
H          -0.22883284300615   -0.64179899217341   -2.38835073488645
H          -1.86741807600361    0.07051377585437   -1.30280975832758
O          -0.10818986068328   -2.24412484041101   -0.08324660189326
H          -0.90267423882211   -1.64060746403507    0.14478957758934
H           0.20760786783073   -1.93111095673670   -1.01338869297601
H           0.66696159513261   -1.98899835675246    0.63173954462394
N          -1.16122215557777    1.38827502621064    1.61330154239420
H          -1.69489805892486    1.82578101907135    2.35394260722662
H          -1.71421223502385    0.14614643377192    0.92675987465445
H          -0.99989701679010    2.08229757404549    0.89043452915821
H          -0.24142320017090    1.14294589698250    1.98949518896546
