    26
        -50.44529058  Gyration_radius:  2.48640307971 Dipole_moment: 3.291
 S           1.94578659323751    1.08197141862739    0.53969423121904
O           2.72539100531315   -0.06111377646495    0.03234655715205
O           0.68865042225814    1.16247514568846   -0.18761709314080
O           1.80791056471841    1.11069117111207    1.96430706281353
O           2.77942281725427    2.37073515239232    0.12837001310313
H           2.82877510353756    2.30707508318242   -0.82102957494634
O          -0.62199625118777   -2.08787654415389    0.51826353618510
H          -0.46350455985289   -2.92661246104837    0.95319838943095
O          -0.29816601756097   -0.19368896307286   -2.83501568302169
H          -0.55817204273209   -0.72197106080833   -3.59219677443873
O          -1.77982670200580    1.72721787211227    0.45509980762202
H          -1.97946760293336    2.59119461406720    0.09224496239687
H          -0.82730753283407    1.56158515078932    0.25315236076326
O          -2.25069417855417   -0.43663988493205   -1.11321275634552
H          -2.22698671840111    0.36438316102573   -0.55149363614090
H          -1.08978653534647   -0.16949094796048   -2.22492850505534
H          -1.89150507428742   -1.14035118300204   -0.55604651461701
O           1.17311435298374   -1.48968220434585   -1.20887799213774
H           1.89180598219677   -0.86551562638524   -0.68808686437873
H           0.47201680998963   -1.74533206976789   -0.50851572962644
H           0.67182367091662   -0.89379409848983   -1.88450324200166
N          -0.60712620094384   -0.27312506489084    2.33153026831974
H           0.29850850905296    0.20090930376925    2.27875127814304
H          -0.61121397107579   -1.35960910381176    1.26380328146840
H          -0.77152237118348   -0.52561164325902    3.29793149972083
H          -1.30593007254622    0.41217653961719    2.06283108750429
