    26
        -50.44529054  Gyration_radius:  2.48716981853 Dipole_moment: 3.290
 S          -1.22205341696183   -0.68418034460740   -1.81588680441433
O          -0.14092886220012    0.17131392267095   -1.35223720238014
O          -0.89354225488582   -2.08766680401865   -1.50908065654728
O          -2.52461705743293   -0.27905412111447   -1.38153243949137
O          -1.21272298802741   -0.59104663492736   -3.40216155421156
H          -0.32760061530963   -0.85741623277584   -3.63325114507253
O          -0.11557537756386   -0.73417098999749    2.11298458607873
H          -0.50656543061845   -1.29198457730414    2.78645620262228
O           2.78860903557798   -0.45792306034430   -0.42124557953063
H           3.63072849199713   -0.74365366742275   -0.06174678149841
O          -0.00565933137434    2.51147242849069   -0.19881211142869
H          -0.10506097226202    1.65013686052110   -0.67193399013025
H           0.33093373942010    3.13073881124787   -0.84783360339913
O           1.80417229876788    1.20319193680030    1.34125398283642
H           2.46294949131017    0.27489150598264    0.17579181437132
H           1.19892430591574    1.79738512028542    0.85292190558782
H           1.22292925573733    0.60208705721526    1.82656812655052
O           0.89305668779435   -2.05563865981801    0.16375212910350
H           1.64064377981015   -1.43861365714441   -0.18734434643610
H           0.47650692268134   -1.54856940347136    0.94905643187961
H           0.12001552918189   -2.10392652561422   -0.59601925864054
N          -1.98325577104098    0.75161435685452    1.17287590445252
H          -1.56356906985686    1.65340937191210    0.97059307398919
H          -2.26279746754382    0.35400338208869    0.27201089333352
H          -0.88387269698247   -0.13788678928251    1.73759923923694
H          -2.82164822612927    0.91148672372602    1.71722117312352
