    26
        -50.44529047  Gyration_radius:  2.48731668646 Dipole_moment: 3.290
 S           1.73554021684238   -1.45518751036081   -0.36216691318346
O           1.11251897329457   -0.54605038742916    0.58704560522615
O           0.77436531444882   -2.51323420236377   -0.72061011475099
O           2.34354916961451   -0.81070374784989   -1.48664393010544
O           2.89606535931044   -2.19725726887289    0.42999232988758
H           2.44081199417155   -2.59410224080100    1.16692482981740
O          -1.50472569394642   -0.76603922939272    2.30493475961016
H          -2.36333883761003   -0.87178911552481    2.71922604540465
O          -1.72459896280338    0.47303923976240   -1.34883587514275
H          -2.19492001819618    0.36708596195305   -2.17654049149986
O           1.13087846788427    2.04123826101790    0.94852935027822
H           1.18749069079909    1.06661572659885    0.79842890171991
H           1.63923977890091    2.21518680380295    1.74181547408639
O          -1.44402065488456   -1.72065700170409   -0.05579897923430
H          -1.38727256780695   -1.41763354123454    0.92797434838519
H          -1.56104909659249   -0.85787549583050   -0.59364009969619
H          -0.47210468161418   -2.11157557579275   -0.33811545928231
O          -1.53324946105472    1.61975281899329    1.23633793922469
H          -1.77602146486922    1.39046736966049    0.32904924456488
H          -1.45235114827361    0.18699380420170    2.00742655033025
H          -0.59967461893960    1.90828288232409    1.18076487735012
N           0.61585224021979    1.36116591229445   -1.90824751499423
H           0.86950964918489    2.00234147794501   -1.16335830078323
H           0.77968667125844    1.82719852695708   -2.79185693046006
H           1.26355410718788    0.57119396924704   -1.84308753247862
H          -0.77573543652420    0.83154255240468   -1.58954812427434
