    26
        -50.44529048  Gyration_radius:  2.48610250624 Dipole_moment: 3.295
 S          -2.28014096656498   -0.09660002813203    0.18701515753247
O          -2.39146138322893   -0.35499371030934   -1.25963933711583
O          -1.01038335425701   -0.61780053201786    0.66830227399856
O          -2.54260618103194    1.25976634007793    0.56211193261039
O          -3.41021898697563   -0.99007625409930    0.85785136530354
H          -3.18690965967423   -1.87375236394973    0.58018240514203
O           1.07360573802896   -2.57568842317106   -0.60895482568728
H           1.70623483694240   -3.09772551018328   -1.10623673892710
O           1.23144210164094    1.19482097352214   -1.43811346417552
H           1.31001533995366    1.82944694363076   -2.15139146095431
O           0.78044303690577    0.18619538241396    2.39215310163981
H           0.05675674834049   -0.09586642981521    1.78201106939599
H           0.71270730083982   -0.38166146624285    3.16090499073880
O           2.44712977467819   -0.59168503285237    0.39705785957317
H           2.25964506773453    0.08837447851780   -0.26408417945659
H           1.96857002053159   -0.29975532307422    1.19919251283273
H           1.60495859621093   -1.89014505435745   -0.11163525313563
O          -0.14015736280119   -0.87612533334471   -2.06684130940885
H           0.24532062718444   -1.61537766208114   -1.46010072387211
H          -1.15379283659841   -0.67423442601901   -1.73662418898567
H           0.39706547098726   -0.03644066337037   -1.83585907166316
N           0.03489794674439    2.37241758283592    0.50217648715990
H          -0.93584719312974    2.04787283858733    0.50246390818328
H           0.02581345983885    3.38362959714384    0.54908014014722
H           0.45482890963914    2.02238424182668    1.35737640224703
H           0.74208295805280    1.68301982446996   -0.65839906312255
