    26
        -50.44529041  Gyration_radius:  2.48602537541 Dipole_moment: 3.294
 S           1.73698740635252    0.70886869971484    1.31254915850535
O           2.37658145269696   -0.61290695137688    1.18778416664455
O           0.94460104465051    0.96965532911185    0.12106435259490
O           1.03477497951932    0.90663082195353    2.54431423828847
O           2.93352680979164    1.75445044262018    1.28835050947185
H           3.36339244626878    1.57902299408776    0.45634009106845
O          -1.23769154384923   -1.85344096531648    0.20887474339003
H          -1.47166806055704   -2.65965055006096    0.67033487001124
O           0.86722112558222   -0.40715637562204   -2.69092823682152
H           0.83166063324031   -0.94238290844602   -3.48611701185256
O          -1.36734557078069    2.09152070221963   -0.34979152892704
H          -0.48217729705519    1.71449988202266   -0.12649930317187
H          -1.19571506206841    2.93781264075797   -0.76496615941580
O          -1.62200891525401   -0.07442449521351   -1.96458111970244
H          -1.69520780745683   -0.77781626178093   -1.30531913347051
H          -1.65298995321482    0.75655166861837   -1.44864813520897
H          -0.07774724113352   -0.16124193741363   -2.47591327149337
O           1.19587713337122   -1.81049172276071   -0.59110098003614
H           1.75570931447331   -1.29809151024132    0.18369430346805
H           0.22998783646634   -1.84642768945613   -0.25488314168336
H           1.16883023640232   -1.19416720206716   -1.41741869618229
N          -1.56084493192479    0.08856314326470    1.85391836822414
H          -1.91128873233253    0.87233025741761    1.31250248767455
H          -1.37004949265126   -1.07329761402862    0.88722623042918
H          -0.63263305026235    0.36024887241427    2.18910642922916
H          -2.16178275032627   -0.02865930044799    2.66010674889125
