    26
        -50.44529027  Gyration_radius:  2.48695164299 Dipole_moment: 3.275
 S          -1.57554731117085   -1.66399272620265    0.00151909012153
O          -0.30068171050281   -1.21780331568960   -0.53808041510492
O          -1.46875172997317   -1.77154137215572    1.46749398900972
O          -2.70519160498123   -0.90946916120981   -0.45041208798080
O          -1.77882361111306   -3.15422480153688   -0.51135200386559
H          -1.00914151699940   -3.60815432506641   -0.18075085054033
O           0.05634924935345    1.86208963893806    1.24023137626606
H          -0.32944375285030    2.44594292894364    1.89439693695238
O           2.56590664863004   -1.02998577792364    0.72375864527890
H           3.38357197205147   -0.91101616195113    1.21086900109235
O           0.43046844481964    0.40385389065812   -2.45129408332830
H           0.77578378132966   -0.13376483941999   -3.16522738480144
H           0.10596579507771   -0.23026630596687   -1.76701399441818
O           0.51217045546747   -0.49587192238317    2.13207671966399
H           1.30305119914288   -0.82424740280372    1.55755961771107
H           0.31315844739897    0.44967782318150    1.79479892746210
H          -0.35616107165163   -1.08963858661607    1.86827184411846
O           2.17027558330307    1.22519485319463   -0.53791482437592
H           2.47066218489545   -0.22755755173494    0.13503489308614
H           1.62217756250296    1.01277879701659   -1.32032260075262
H           1.56344665667779    1.65432113386091    0.08041949773959
N          -1.61960336395870    1.66776295768833   -0.69182714327082
H          -1.07420753199154    1.60838674912549   -1.54578889019366
H          -2.32631217280574    2.38104538422938   -0.82045543183926
H          -2.09503233335990    0.76714264906811   -0.58853391036751
H          -0.63409026928540    1.78933744475284    0.46254307234017
