    26
        -50.44300235  Gyration_radius:  2.54151838008 Dipole_moment: 2.802
 S          -0.72172751555223    2.18198829518313    0.55754187580138
O           0.31888439901233    1.54077904175906    1.34054810713791
O          -0.43196385023643    2.04095957490488   -0.88389508921433
O          -2.05831808698734    1.78218516363906    0.89226418468162
O          -0.59924806937738    3.73499172666426    0.84644071763428
H           0.33507434333480    3.89387094848238    0.75195106178223
O          -1.15948923478784   -1.92603500428794   -0.15794409530401
H          -1.96039947145008   -2.43872032824756   -0.27555847927450
O           1.65886949154734   -0.26175783604906   -2.42431154745389
H           1.92476262862702    0.50492884328729   -2.93464939155129
O           1.53009443068767   -2.45726158800930    0.32553075869783
H           1.91637229286910   -2.79032691875248   -0.48690806380696
H           0.57468832558983   -2.38719462851852    0.16874359916743
O          -0.81295571872772   -0.12365368421238   -1.95335334581280
H           0.17592199228590   -0.25806785991421   -2.25082450526524
H          -0.99015227011269   -0.82528503680188   -1.23531879925602
H          -0.75013100452133    0.85138145934831   -1.47323779891321
O           2.20683365702279    0.18309702064333    0.05377438789049
H           1.54536580885073    0.73225701504582    0.52551698486558
H           2.09482008611069   -0.72230094584005    0.39834756844411
H           1.94285964900372   -0.06969436436894   -1.47314615973885
N          -1.36785208458145   -0.63424721215369    2.03504032246618
H          -1.86373536675207   -0.99380278357915    2.84071776435958
H          -1.25761415397090   -1.42950326979565    0.75741957619551
H          -1.81600389262237    0.23415544087419    1.72974353930678
H          -0.43495636526365   -0.36274308930466    2.32556684715913
