    26
        -50.44300223  Gyration_radius:  2.54143626979 Dipole_moment: 2.817
 S          -1.37423163905402    1.91837822308710    0.14223972192610
O           0.04746754571666    2.02116379027140    0.41634536895348
O          -1.59678053105882    1.16276941442218   -1.10726308859340
O          -2.16224246417746    1.42253130267152    1.23381448799316
O          -1.87120187968201    3.38823488550139   -0.17829320755027
H          -1.21964461279903    3.70042232897638   -0.79879560384141
O          -0.12515738009759   -1.97150025057078    1.08368001601899
H          -0.58432308529804   -2.65745422864928    1.57023564085144
O           0.58931288920050   -1.00038376766922   -2.71184623092613
H           0.27110576510255   -0.54435386257599   -3.49269991651249
O           2.48017868138469   -1.51184605162904    0.21895293060537
H           1.61333737303981   -1.76514737127862    0.57512209513702
H           2.65276402663526   -2.09694083077941   -0.52130717628783
O          -1.31271271112927   -1.26488134501239   -1.08044196923455
H          -1.53001189582998   -0.19919033158791   -1.03635369007547
H          -0.55495732339396   -1.27903063649342   -1.79487277686353
H          -0.87789095748201   -1.54116913789478   -0.20088732498489
O           1.73341065652909    0.72364589593763   -1.17638993129247
H           2.17879270624250    0.10940164533923   -0.56364040314463
H           1.07884210064328   -0.30271323569781   -2.16773201300269
H           1.11680073653284    1.25016333281363   -0.62476430900329
N          -0.09339637967435    0.13289001711512    2.52966753839006
H          -0.04243932215867    0.10592362032861    3.54014703648044
H          -0.10192907269046   -1.13137122816139    1.70649279710543
H          -0.96295272238687    0.59717499041543    2.25321752233339
H           0.64785948588624    0.73328284112957    2.18537250551060
