    26
        -50.44300229  Gyration_radius:  2.54147232716 Dipole_moment: 2.808
 S          -0.65742784030971   -1.16907803460566    1.94743381416423
O           0.69604160274264   -1.55195545727778    1.49675040090909
O          -0.81702711995039    0.27201743362109    1.87829909718989
O          -1.68915092543554   -1.92026528406985    1.29198450402817
O          -0.69464932242709   -1.54519215666246    3.48615231309216
H          -0.09881831471993   -0.91066668558856    3.87284763886104
O          -0.66020768904460   -0.24037345895760   -2.14139295372203
H          -1.03511162604471   -0.73074251589454   -2.87427808515738
O           2.90072111757723    0.29616879895079   -0.44228937020872
H           3.53921549862885   -0.03017257477152    0.19395350648331
O           0.32085483927053    2.33015218680494   -1.71910940305332
H           1.17894899128344    2.39306816632950   -2.14318071553306
H          -0.05061139307058    1.47012160289704   -1.97335558726811
O           1.15088014963305    1.70795203925385    0.81603234133460
H           2.27029353965609    0.88818815464669    0.08141789546717
H           0.71988839658906    2.13281035258188    0.05129593537230
H           0.45039165021598    1.18607736752160    1.26160473016618
O           1.19579221692809   -1.50326038713818   -0.89546498558333
H           0.91387306434962   -1.61262519425447    0.15012780842552
H           0.43464091448700   -1.03608532673717   -1.38708403748547
H           1.96252327235241   -0.80278169716948   -0.81748886643827
N          -2.49838525976449    0.10333435364277   -0.40246079058462
H          -1.43744066253407   -0.08919717795020   -1.45782435316659
H          -3.47277458419231    0.22380169379150   -0.64806107882499
H          -2.40322579416348   -0.73443296318525    0.17826209783868
H          -2.21923471206198    0.87313676422057    0.19582814368875
