    26
        -50.46151543  Gyration_radius:  2.41353043278 Dipole_moment: 6.715
 S          -0.08251465737158    1.35949519438731    0.21406839481374
O          -1.13555966039469    2.05992942103141   -0.63590917477888
O          -0.69478506464827    0.19949295151970    0.87849897136378
O           1.00658167200025    0.89879468899535   -0.65754269127299
O           0.40931877921504    2.30873388882534    1.20703497521425
O          -2.83855399713147   -1.28256372869552   -0.09037449936411
H          -2.20656475940164   -2.01104297621158   -0.20949737489735
H          -2.37671185063592   -0.67230906598093    0.50256290436045
O           2.92012687402868   -0.01461860722999    0.88674255961101
H           3.68349157174144    0.54636035775982    0.73824414462661
H           2.24428733243652    0.26954569742803    0.22262289517804
O          -0.25130916510758   -2.26482115275018   -0.26452862368994
H          -0.26650882416566   -1.39641279445115    0.16963150366953
H           0.04604238264112   -2.09270634954641   -1.16515784908163
O           0.32264131783368   -0.72375039401375   -2.59129132209602
H           0.64536279039675   -0.10669314264349   -1.89114646593667
H           0.81456617350776   -0.51430553792917   -3.38633382937189
O          -2.14979532451459    0.29716852423691   -2.11188060470289
H          -2.58000579217090   -0.31248938737680   -1.46173932320242
H          -1.59462778331174    1.37592719607595   -1.27353976267751
H          -1.36252565954261   -0.17636848038622   -2.44487904617056
N           1.10670918323027    0.43247658034632    2.73604155678970
H           0.87936276914873    1.40616496311199    2.30649411493858
H           1.18140847766519    0.39703330732494    3.74701558624854
H           0.30556149402481   -0.10250941800740    2.35211570432698
H           1.97400173057262    0.11946826414311    2.22274725610345
