    26
        -50.46875453  Gyration_radius:  2.49848643367 Dipole_moment: 1.326
 S           1.41267673781379    0.83383805977225    1.40843503450938
O           0.88940526939351    1.41104735917382    0.17244230859570
O           0.52602956238394    1.09838306423076    2.53076816770459
O           1.77150659254842   -0.55859104532212    1.25948590548647
O           2.76267317353229    1.60374516039928    1.72656226742790
H           2.46513423631883    2.43392939912013    2.08583204370644
O          -0.41705056802842   -2.03587965126363    0.80358781376455
H           0.44444794582453   -1.64978743233310    1.06161115008410
O          -1.66619868172735    0.18788903643973   -2.62488576500265
H          -1.14013624657650    0.64900127202476   -3.28074822063324
O          -1.73057843002083    1.67125136692747   -0.36778110329858
H          -1.83900874725972    1.17962759052743   -1.20934534990461
H          -0.76562119852805    1.76721589987110   -0.24728998760815
O           0.01672682287945   -1.83407517326507   -1.90063599386475
H          -1.15477807275209   -0.60313263633518   -2.36968839779029
H           0.83477190285318   -1.27412780072977   -1.76579125123705
H           0.28247722345309   -2.58390387338161   -2.43438913523093
O           2.09196333543873   -0.33462011831281   -1.38658256972944
H           2.41619238613289   -0.74041259024021   -0.56947694902443
H          -0.39418207692156   -2.07399740164310   -0.17018237869221
H           1.65749617395682    0.47252147986383   -1.04515374015513
N          -1.72822784565052    0.06713144421739    1.68076067598208
H          -0.90959472042866    0.50776367756785    2.18058688297441
H          -1.37143996134466   -0.87021984709726    1.33039716522933
H          -2.53263888356130   -0.03187580310369    2.28943865760384
H          -1.92204592973905    0.70727855288465    0.84204275909981
