    26
        -50.46875460  Gyration_radius:  2.49845013959 Dipole_moment: 1.329
 S           1.60928407733386    0.67243510096890    1.27779128320474
O           0.79383650484360    1.43807530850936    0.33785144064174
O           0.96171925882569    0.57045025769652    2.57622868285828
O           2.03518601179771   -0.59721753973037    0.73323357081885
O           2.93238458764994    1.51527315137258    1.51362130022217
H           2.65391204301991    2.20286030446286    2.11068722265006
O          -0.07913466695557   -2.19858942462667    0.35182818936288
H           0.78483336154265   -1.77460614595900    0.52962425822392
O          -2.19239247666619    0.55244905623931   -2.14152094878360
H          -1.85487782746286    1.20887273510149   -2.75356585940704
O          -1.89319159319619    1.48204505988052    0.37710014484199
H          -0.93494871884314    1.66864262069734    0.33437809111584
H          -2.13857424133920    1.17836693540954   -0.52252481713956
O          -0.24281235253430   -1.35298870687480   -2.25593774653446
H           0.53957599195543   -0.73930098781897   -2.14543732813470
H          -0.03837256873657   -1.92746162776869   -2.99479793769618
H          -1.57867510942292   -0.20500821311447   -2.18529216728022
O           1.77197609534513    0.24228194488037   -1.79238202629929
H          -0.25941572279430   -2.01784398776219   -0.58894393827880
H           1.35809553670528    0.89449131707422   -1.19235950023890
H           2.29056666846664   -0.28999688982281   -1.17166410260529
N          -1.33420828786393   -0.52123859125285    1.94026408777953
H          -0.98810138598835   -1.30621272714710    1.31370503752197
H          -1.74974056260233    0.25889958534945    1.33230309541830
H          -1.98180817188198   -0.85155583315213    2.64658358823036
H          -0.46511646120883   -0.10312269260403    2.36922637950568
