    26
        -50.46875475  Gyration_radius:  2.49838000005 Dipole_moment: 1.330
 S           1.44465408284618    0.02060546040835    1.60846419285679
O           2.13685344099322   -1.23083201682677    1.34337339224474
O           1.38243375982634    0.85553305249507    0.41100334265999
O           0.15221902353138   -0.14483717263924    2.23474296991630
O           2.34231919493109    0.80470060101792    2.65532525296893
H           3.22919120902274    0.66175314489829    2.33931668543002
O          -1.48195377192447   -1.53849485106097    0.63252032755994
H          -0.97823815153589   -1.11614626581878    1.35756960803260
O          -1.08565181112389    1.10413092370784   -2.70217100941934
H          -0.93900380099751    2.05155675572083   -2.71830313091973
O           1.24202441310408   -0.12191143900633   -2.08892915056338
H           0.42223543045793    0.28174529877316   -2.44490356260686
H           1.43012484768205    0.36251287040134   -1.26139841380164
O          -2.48572259319727    0.80877780811298   -0.37873994080783
H          -3.38064243941368    1.10074741675209   -0.20092684512019
H          -1.88444561620649    1.35933174518620    0.20128397963254
H          -1.65319340399580    0.92726441312818   -1.92831451763222
O          -0.81284084345521    2.10226201341237    1.15320312500455
H           0.03881810422335    1.88064461465536    0.72621915619377
H          -1.94876940004907   -0.80583912580259    0.19020619031685
H          -0.79370201964081    1.52823905001418    1.93279301652856
N           0.72208921083733   -2.21350214190780   -0.63133886280760
H          -0.25372730303555   -2.07130109417925   -0.23610267674498
H           1.38020277984520   -1.97791785288080    0.15961903233020
H           0.86444803457962   -3.15755548708376   -0.97173370718623
H           0.91027762274406   -1.47146771146141   -1.38277847407353
