    26
        -50.44612501  Gyration_radius:  2.4859687243 Dipole_moment: 2.140
 S          -0.47509700102631    1.85419948179128    1.15099716667053
O           0.07899653902927    1.55205739362255    2.44657544748553
O           0.23862597843578    1.27688570989895    0.03618295497478
O          -1.91014471513406    1.53948242416687    1.06407709993547
O          -0.37198864566459    3.43284254099596    0.97506930566589
H          -0.71116893355349    3.76356779489573    1.80138219287404
O          -0.80934344330605   -2.05890342980528    0.23518900244145
H          -1.35040701629626   -2.68105750561235    0.72303182943783
O          -0.71419407414064    0.31073487740938   -2.80209372568009
H          -1.10513686181036   -0.05835278011022   -3.59632699236665
O           2.53391208975480    0.08607645086875   -0.36711912506151
H           1.70558716571620    0.58687553395912   -0.17919270724640
H           3.10154662458147    0.69249627690976   -0.84510310397348
O          -2.14732278675632   -0.09900826159839   -0.74402806265941
H          -1.63693750355871   -0.89298426055588   -0.35245239135370
H          -2.08398189317226    0.66387273703822    0.01464409879937
H          -1.58549363047039    0.20280147772316   -1.55747960024597
O           0.95880550968958   -1.49618818974062   -1.91252128650094
H           1.63813686458261   -1.00512297829292   -1.40719544049474
H           0.40184350324300   -1.91281516189380   -1.24141222620155
H           0.01624720408678   -0.31301823681307   -2.52897052119544
N           0.89793221077490   -1.08285897561999    1.89410389937234
H          -0.12901578789522   -1.66349877632681    0.91257363644021
H           0.57798576292874   -0.15151742124082    2.17154064312646
H           1.12259595014675   -1.59877959705302    2.73589451847022
H           1.75801690980970   -0.94778712463839    1.37263339728545
