    26
        -50.45901945  Gyration_radius:  2.63360607256 Dipole_moment: 2.640
 S          -0.09818296108751    2.14018679775828    1.32658478801773
O          -0.52436806621786    1.73985351377052   -0.01958355553457
O          -1.13641994348086    1.98583207849977    2.31237364054610
O           1.16167288034639    1.49913283187103    1.67294548765554
O           0.22029565812255    3.69797402483910    1.24285311313699
H          -0.60534947967744    4.10385151177550    1.49023656969532
O           0.63903622308436   -2.07766202657688    1.16524806083487
H           0.91717056132753   -2.21002557801124    2.07274637934430
O          -0.80759789727405   -1.17038832858341   -2.91123605479724
H          -1.58177356683548   -0.92517235870491   -3.41913304411539
O           0.84464542834128    0.79577025397197   -2.10983938507188
H           0.26983772216470    0.09827063531375   -2.49330660603790
H           0.27541504572162    1.30403456642269   -1.49814175692751
O          -1.67562463626783   -2.46683345809692   -0.71243223278848
H          -0.91434099620989   -2.91014110704314   -0.32620980964125
H          -1.89909703896137   -1.75371229837423   -0.09549673238497
H          -1.13531862941477   -1.69050670016090   -2.14527975572190
O          -1.43946305856364   -0.40054219332671    1.12112134908489
H          -1.65500361744730    0.09101474415186    1.92572036352147
H          -1.17041169519655    0.32818401895754    0.51669400660494
H          -0.13575652494044   -1.46629042482631    1.20675107203195
N           2.12087638009463   -0.16255260827683   -0.07265219759924
H           1.68402451748662    0.15795002091088   -1.01037252306705
H           1.69200012792520   -1.05322362929822    0.24819104819882
H           3.13039332384882   -0.22931198778136   -0.12974388066039
H           1.82334023307504    0.57430773080971    0.64196164566476
