    26
        -50.45901940  Gyration_radius:  2.63368588334 Dipole_moment: 2.643
 S          -2.11881318266302   -1.18045490397825    0.68386309258125
O          -1.26692391112744   -1.20012218638394   -0.51102093641152
O          -1.75516780503314   -2.18588346509954    1.64857505547516
O          -2.20680599990013    0.16827341790496    1.22370769201709
O          -3.58705195655745   -1.54104749732538    0.18458854094249
H          -3.63003381145819   -2.48622531289513    0.29599992176523
O           1.23789906187531    1.28073856879608    1.70594965060864
H           1.01615796360679    1.45499294980938    2.62183895963394
O           2.05603817060466    0.18567292015451   -2.49639392516644
H           2.30591860310011   -0.53975615159779   -3.06973209764214
O          -0.56580755748676    0.72445532787089   -2.22534168822029
H          -0.89690281627217   -0.08722136361838   -1.79162535560418
H           0.38274437750356    0.55804039430557   -2.41642433838652
O           3.04576863526096   -0.35755724266101   -0.04807707516916
H           2.99800946920967    0.45582614992741    0.46316887470596
H           2.38351311339857   -0.94701033149913    0.34316225927371
H           2.47175741849682    0.00290081458949   -1.62552562070983
O           0.72175889468026   -1.28026456236513    1.15029080434238
H           1.04358330848737    0.32350173666514    1.55835777761792
H           0.20275230209666   -1.79562944637825    1.78320211311379
H           0.11500324447679   -1.25981657968312    0.37563549204536
N          -0.78515519324270    1.97845553912989    0.02767631168608
H          -1.16302546522336    2.91862477270355    0.01628470100180
H           0.09969078113647    1.92392811507313    0.57004905348367
H          -1.45807588788099    1.29867533098040    0.50439646425742
H          -0.64683176709107    1.58690300557895   -0.97260573725875
