    26
        -50.44612502  Gyration_radius:  2.48578177053 Dipole_moment: 2.144
 S           0.23975848468738   -0.97000713915134    1.99754587418098
O          -0.98817123193785   -0.60223552564639    2.65616382499405
O           0.12898427350978   -1.16020388792122    0.57014062376644
O           1.34542486303742   -0.05100931106749    2.31134835709938
O           0.66929704506341   -2.37868025574694    2.60166521020124
H           0.57436061003698   -2.24719259244285    3.54021249419750
O          -0.02833357858755    2.16014613374602   -0.52988398143651
H          -0.02877591883095    3.07694994178089   -0.25187827895597
O           2.17938125710038   -0.74101847328552   -1.77749837318551
H           2.82596662498950   -0.48247289672377   -2.43700851768661
O          -1.79133163193672   -1.38842356971967   -1.19300640162738
H          -1.82114757837724   -2.30191715819921   -1.48122045987180
H          -1.10280092412406   -1.35257617899240   -0.48803941830056
O           2.08745031742460    0.88745925948354    0.17104167090002
H           2.16438192206484    0.13011274424920   -0.52821260527534
H           1.25774023204050    1.41671319426241   -0.10511293029770
H           1.82517349384354    0.44876701558366    1.11908399394319
O          -0.11395812881233    0.21899203240610   -2.59844968245995
H          -0.79998059571065   -0.36314797636119   -2.21310178627787
H          -0.14726073374996    1.02719610136423   -2.06939831948284
H           1.28460224221620   -0.49254416546364   -2.14473398983894
N          -2.03419769959731    1.02567194448888    0.61339380221802
H          -1.68509779206819    0.48846977148692    1.41110718398057
H          -0.83513083461608    1.70731632329599   -0.05809658093668
H          -2.39785908347772    0.35017303485728   -0.05098207844876
H          -2.80847563418399    1.59346163371597    0.93492035859893
