    26
        -50.44612498  Gyration_radius:  2.48581675347 Dipole_moment: 2.140
 S          -2.15821078676378    0.56522484484839    0.10174297197809
O          -2.77907507954955   -0.68877499112226    0.44647597253517
O          -0.83403783993254    0.75624347696383    0.64570682557798
O          -2.16171879755894    0.81663142336708   -1.34822599385936
O          -3.06810227745844    1.70688216687487    0.73624377334205
H          -3.94788093264957    1.44757002506339    0.47945213165670
O           1.05279657339174   -1.30652570067007   -1.45966345593449
H           1.01496875353923   -1.90841777560632   -2.20407720576793
O           1.66590867504457    2.34913703437140   -0.40672208257489
H           2.40802269134956    2.76336002774841   -0.85120690385652
O           0.69273165855930   -0.39075484758090    2.43509781808641
H           0.73926813154601    0.18701280877571    3.19826516026272
H           0.06351398363376    0.04094632661691    1.81060833177151
O           0.18757933965458    1.04621635193513   -2.01127877203079
H           0.67741892539963    1.65539049261515   -1.33498764233072
H           0.53554868130849    0.10503644294481   -1.81694119291510
H          -0.85495266672908    1.01012087716084   -1.74230296368521
O           2.55804364039662    0.06697664515003    0.51567317631023
H           2.24786600732105   -0.52101573746411   -0.18594534796191
H           2.02764058760876    1.54239401983353    0.05756320975162
H           1.99721870731900   -0.14568627503726    1.28913448220587
N          -0.46174985987591   -2.28353661989980    0.37602361800132
H          -0.67761966642739   -3.27277426336569    0.36702111816358
H           0.43305932058097   -1.70288030918232   -0.72666895435343
H          -1.34558835685084   -1.76822272686487    0.36817893748353
H          -0.01264939284636   -2.07055370749252    1.26083296814876
