    26
        -50.46846772  Gyration_radius:  2.39951422998 Dipole_moment: 5.641
 S          -0.03210068220914    1.46654845372498    1.07752784362745
O           0.23616583793789    0.05403800647735    1.32268850454052
O          -0.65091337503146    1.61748694974217   -0.26199735745292
O          -0.83888427231109    2.05854819580699    2.11007291525938
O           1.34003805408538    2.20262937190974    1.01182993807542
H           1.90294164697393    1.67265451696005    0.39753508363905
O          -0.33844512456551   -2.04400875190579   -1.39109816464775
H          -0.37969971602375   -2.96191180783830   -1.66184722689224
O           2.72374217655144    0.82338638309197   -0.79728583411547
H           3.35162861236085    1.42883913308414   -1.19539794926330
O          -2.20332312876515   -0.17630576765436    2.50909133796947
H          -1.47277930553150   -0.70356663815543    2.84649339596187
H          -1.83519993756658    0.73765092175504    2.48290382332642
O           0.61144848559445    0.50820127301471   -2.29918204643513
H           1.99139062662159    0.69659641374918   -1.46397964196685
H           0.27694193652361   -0.39619439601547   -2.22536728064768
H           0.09129634247877    1.03306362278297   -1.65209264203152
O           1.74707268217930   -1.69111885843328    0.11908023654449
H           2.41983154391306   -1.11319277401613   -0.25945535424504
H           1.23801382758962   -1.09655366153987    0.71600922636836
H           0.48242850334144   -1.96257860973052   -0.81867081203856
N          -2.16169385353707   -0.45685409591162   -0.12627027732665
H          -2.24705121027137   -0.51155568982621    0.93190529765472
H          -3.07119979480245   -0.44245403655551   -0.57593848085969
H          -1.62825829964006    0.46397610236377   -0.27921285934009
H          -1.55339155587551   -1.20732425686907   -0.51734166571930
