    26
        -50.45450032  Gyration_radius:  2.50679860008 Dipole_moment: 3.925
 S           0.23665087008402    0.00402571257266   -2.20519558862622
O           1.36005424018542   -0.74121944529253   -1.67064083507401
O          -0.85839690489720   -0.86888716758903   -2.61952708111014
O          -0.20106175847727    1.06727306915415   -1.32209410746550
O           0.73916791361029    0.71264125124299   -3.53107966255553
H           0.75444650792242   -0.00471274544841   -4.15702524479529
O           1.10923269305450   -0.08644588669130    2.29434920598233
H           1.80270582202928   -0.25201946412061    2.93398040476201
O          -1.98710131059037   -1.55823289791204   -0.49409268100755
H          -1.64744369536874   -1.36762615496849   -1.44865407253887
O          -1.40455129941000    0.84786408385768    2.67824947670799
H          -1.82711957799674    0.22115132021735    3.26758912007745
H          -0.47357938407652    0.56566589631543    2.58683354099439
O          -2.36477767800989    0.80123959219182    0.18141165197187
H          -1.63405296415366    1.12232447564607   -0.38888152748183
H          -2.27105682297968   -0.57875753948214   -0.14619610850894
H          -2.06925296560821    0.93429619577984    1.11144036671109
O           0.31641500891454   -1.91978303334653    0.44542745840861
H           0.56625613174686   -1.33002825665364    1.18412388931495
H          -1.10132408130012   -1.80251938810037    0.00061307826520
H           0.80986852912814   -1.58660012738984   -0.33816173783718
N           2.10547405769676    1.24280768835687    0.28048786457619
H           2.60609161451829    2.12169625224472    0.32163612076156
H           1.51711196833092    0.48604861101113    1.56211030581084
H           1.25773571663568    1.38625619118915   -0.27027586932593
H           2.65850734901306    0.58354176721983   -0.25642795800877
