    26
        -50.44856121  Gyration_radius:  2.52156523738 Dipole_moment: 3.497
 S          -1.30340992934085    0.86291642888866   -0.53200159004203
O          -2.08079859947312    0.40418714622039    0.59058103228731
O          -0.02350513998186    1.44657518191560   -0.11271917498725
O          -1.07669637165380   -0.19703513889562   -1.51743062687307
O          -2.09042699893072    1.97468693608782   -1.29873244375074
H          -2.02849681957860    2.74511417719548   -0.70332498579820
O           1.01995582082756   -2.06470806968451    1.26380732282832
H           1.03623148548812   -2.81463523723160    1.86014799849973
O           1.43763758576831   -1.69969071857649   -2.59308448920518
H           0.87894446957868   -1.15828373499015   -3.15798907927058
O          -1.13282845734285    3.74453179144996    0.44165807890364
H          -0.64268226017621    4.46779001308620    0.04432579937825
H          -0.54659152707248    2.95953958052959    0.40835278040468
O          -0.26925196997776   -2.43707217105827   -0.91034116850569
H          -0.76879235459898   -1.51760561027997   -1.09012841338121
H           0.47207694858303   -2.34027908447923   -1.64577402480124
H           0.21842158103063   -2.33007715937994   -0.01270513041431
O           2.07184646974867   -0.13182967665801   -0.59560046616799
H           1.83712017206501   -1.06703093127619   -1.93439232188285
H           1.33975166412900    0.50789823725573   -0.46718515730642
H           2.03926638442923   -0.72514409544540    0.16372570777754
N          -0.10136519863000   -0.07069491120842    2.44077506605252
H          -0.92250067846298    0.08871787589486    1.84460697369276
H           0.48110721170367    0.75153726402658    2.33691606272416
H          -0.41663462470549   -0.11374107929687    3.40191516121927
H           0.57162113657365   -1.28566700408825    1.77459708861553
