    26
        -50.46254924  Gyration_radius:  2.41936692684 Dipole_moment: 4.385
 S           1.55697488496224    0.37491777249908    0.05135263632661
O           1.96166305427582   -0.87502778951452    0.70711096718207
O           0.81956252889219    0.06492921637927   -1.17982678943824
O           0.80650768271188    1.23813281716399    0.92982277328096
O           2.85394187268159    1.13073525637236   -0.36217638445739
H           3.29804662807806    0.48110432916680   -0.94613770369845
O          -0.09446087726569   -2.00560000328545    1.57475469491499
H           0.83692932437062   -1.63380861656092    1.31594647842347
O          -2.80309365142464    0.32410490354722    0.19928909557718
H          -3.72783966789142    0.54628514867549    0.08690618257167
O           3.21802880757314   -1.08585186248192   -1.72829316679318
H           2.30432767527024   -0.89820630605437   -1.98727303115066
H           3.14827750912213   -1.57572363904019   -0.89981426865762
O          -1.14511921433624   -1.64943720345676   -0.67429469447739
H          -0.58466113088706   -2.04287101247254    0.64607030227033
H          -1.89196613944689   -1.05664775049292   -0.46213538850078
H          -0.43403593087509   -1.05977348127300   -1.01102667926289
O          -1.12792778673324    0.13410846351163    2.34163769811162
H          -1.87457509911948    0.23484855175063    1.71893182981443
H          -0.56415320426551   -1.18262687193742    2.05618506482391
H          -0.40549145734710    0.68779746818362    1.96737928194610
N          -1.20907141820251    2.07204167927766   -0.94369013878577
H          -0.47604746836664    1.42308515911052   -1.22966070875909
H          -1.39856995177317    2.69507170796808   -1.71906200955030
H          -2.26520180920224    1.04275785521267   -0.26116899196605
H          -0.80204515080984    2.61565419776233   -0.19082703973646
