    26
        -50.44706819  Gyration_radius:  2.48402594325 Dipole_moment: 6.054
 S           1.83230329391335   -0.50771310157957   -0.62569471264135
O           1.21666985787195   -0.77836353611408    0.66284786011064
O           0.78886649656058   -0.23265623072331   -1.63691421707796
O           2.86127827553491    0.48425543224716   -0.61773847458102
O           2.49334605602838   -1.87814941792233   -1.07458346929851
H           1.89372484563609   -2.54882638610323   -0.75931904921567
O          -1.67350262589369   -2.76067665941808    0.18419851872940
H          -2.52271158996106   -3.17180611114022    0.35355361214911
O          -1.90342441965819    1.08330474547679    0.84830243773745
H          -2.51013946396424    1.80153031908875    0.66351541308465
O           1.49217539809610    2.48322242417099   -1.80813134008500
H           0.99274210392941    1.88929963609369   -2.37553768732516
H           2.20951395655203    1.92512661194648   -1.46014917614217
O          -0.93638725200802   -1.25424199764731    2.17183580359892
H          -1.40468880834129   -0.42057860699209    2.03298437294819
H          -1.38485863754353   -2.32869866573118    1.03913048270643
H          -0.04522975722686   -1.10580005821972    1.80408574563460
O          -1.57511258263822   -0.53935644389676   -1.07686266905206
H          -0.52878537012978   -0.40890907616329   -1.34835776248446
H          -1.64145512263673   -1.47237157580903   -0.66680200772896
H          -1.74843834361101    0.13244116555853   -0.30808943543704
N           0.48323040064269    1.98232502819957    0.81123866404866
H           0.71940942126980    2.39400768385423   -0.09620516028447
H           1.01497081747503    1.11720095261335    0.87612096204994
H           0.81781710555088    2.61026632277710    1.53112725928662
H          -0.94131407544312    1.50516755544061    0.87544402925065
