    26
        -50.44580807  Gyration_radius:  2.45514693719 Dipole_moment: 6.579
 S          -1.38483550841496   -1.13111014112844   -0.88344819341032
O          -1.62314114040526   -1.08503848737716    0.57631695834257
O          -0.46432211343813   -0.07835113484469   -1.27332082730390
O          -1.04907011531835   -2.44295273564594   -1.33993633268805
O          -2.77295805900127   -0.73351599619862   -1.54608780414191
H          -2.77861041864506    0.22024561161479   -1.55526600533645
O           1.56107108071400    0.57226249768881    1.66616426169879
H           2.05176606265747    0.48247350726038    2.48416794107612
O          -1.24918231356779    2.90254343290378    0.24748161317670
H          -1.17460113357346    3.79192412998579    0.59739856375162
O           1.47050746915665   -1.92051425747583   -2.16997338957642
H           1.27772947441771   -1.00596312476961   -2.39411916469390
H           0.59535610436741   -2.32625590729867   -2.04476451956056
O          -0.95899463518081    0.91388087189112    1.82336977189472
H          -1.30480218256917    0.02644481309632    1.28116487780214
H           0.06604842483991    0.81756460173994    1.82210310511814
H          -1.17273143567426    1.72016489636637    1.23233094830727
O           1.01960801053567    2.03768563686081   -0.68622131665958
H          -0.38859512770687    2.70241054897945   -0.22293830864390
H           1.50379477468207    1.68935072260929    0.07481738813377
H           0.57420587838757    1.25803533878601   -1.06916104350354
N           1.24942300887695   -1.76861360048611    0.66691534455906
H           1.61753950044720   -2.57636969639423    1.15489023936218
H           1.50899463248371   -0.38080870586472    1.24306721737037
H           1.58608862421692   -1.81658043212350   -0.29982652814491
H           0.23971111772307   -1.86891240016865    0.61487522308170
