    26
        -50.45484713  Gyration_radius:  2.49650567954 Dipole_moment: 5.246
 S           1.02777075546014    1.01605951828105    0.62527939249491
O           0.04835538004956    1.67085654231563   -0.26770212138473
O           0.59822550562864    1.10553511312587    2.00394447552455
O           1.28882360421725   -0.33412898569104    0.17488152712762
O           2.36841728701235    1.80513065159861    0.45754968875620
H           2.13675541867075    2.69442383063068    0.79187085087160
O          -2.10906812188062   -1.35922247492732   -0.68615392987676
H          -3.05529210729748   -1.21901131736900   -0.74424055419281
O           1.46579835246160   -1.08241997352101   -2.37445116111624
H           1.82836117071140   -0.69358826288345   -1.55655735368614
O           0.84915922899306    3.71462736321242    1.46409976191858
H           0.62641849606645    2.95255138913982    2.02380515978279
H           0.23769846401634    3.66348844232389    0.72174622368080
O           0.35164674999856   -2.82040115533453   -0.66921627956312
H           1.17725986740263   -1.97223637258094   -2.07940251742418
H           0.71291641266529   -2.11364830912741   -0.11251039308136
H          -0.59628108880824   -2.65507174720725   -0.72078453542503
O          -0.66987846946078    0.21524747925751   -2.12584676489805
H          -0.36596117348059    0.90686163519075   -1.37461427283919
H           0.21207507215925   -0.32130697562519   -2.36053157601100
H          -1.27627849688570   -0.43076213911050   -1.62547328709833
N          -1.36286663084995   -0.93187223826007    1.77832113784317
H          -1.83658974418785   -1.16076151828056    0.27647388476425
H          -0.90373822040170   -1.76946358002652    2.11778549029225
H          -0.66543318572206   -0.18535786931776    1.81638907994069
H          -2.08829450654496   -0.69552905580462    2.44533808358043
