    26
        -50.45484720  Gyration_radius:  2.49650973193 Dipole_moment: 5.245
 S           0.54754422163679   -0.69907790106240   -1.30036802544837
O          -0.53607943166654   -1.58113670389098   -1.67575941737667
O           0.17099784425022    0.71242842441902   -1.52690988446906
O           1.01194383131559   -0.87987830846297    0.05819759345579
O           1.77604660353227   -0.97824558620842   -2.22827670048704
H           1.39987508769493   -0.86035070877387   -3.12316684159140
O           2.49133069297854    0.87481449140751    1.40805159391630
H           2.37357465134193    0.15144467933767    0.76419214063510
O          -1.43898619832214    1.17474485894532    1.82084692403028
H          -2.21862815248564    1.73070723702124    1.85918081199028
O          -0.05508207902553   -0.45652873908810   -4.05638353626143
H          -0.19133278791755    0.43225894761644   -3.71123380780104
H          -0.53230183602105   -1.03866828747931   -3.44238138030933
O           0.66393036430527   -0.50268594877843    2.79876188761460
H           0.67951700467817   -0.91415993152170    1.92104366328078
H           2.09721960213385    0.50131504343432    2.22485633358547
H          -0.12034953448134    0.05702301141240    2.81221330420699
O           0.52944399569652    2.12604397885177    0.46319575148441
H           0.39540202436572    1.57982838338478   -0.44176585086471
H          -0.24487534916609    1.81698050746474    1.04655733661673
H           1.40808412098186    1.71657890350120    0.88860866147273
N          -2.08179958364413   -1.06616361358408    0.64687074962986
H          -3.04962966316790   -1.18050986251903    0.36890883133432
H          -1.70661630706079    0.31860250091057    1.33535056506313
H          -1.85858178075314   -1.82705673025259    1.27839737537284
H          -1.51064734119426   -1.20830866610438   -0.18898808907910
