    26
        -50.46328763  Gyration_radius:  2.42777488858 Dipole_moment: 7.587
 S          -0.98553678330425    1.45832526522200   -1.20510597286166
O          -0.53256466142169    0.14000521109159   -1.68500096801590
O          -0.22314081299506    1.76721045802750    0.03568458204989
O          -0.91025567435164    2.48560399585632   -2.18238560634816
O          -2.46895182740273    1.28281775022863   -0.75125261263270
H          -2.48616466599421    0.54169882784969   -0.10716828022856
O          -2.57512225086475   -0.79326163622665    0.92664016537057
H          -3.40548303810733   -1.24085099684504    0.75850792086227
O           1.35354447045661   -1.10345727102973    1.75134866145805
H           1.69005775209430   -1.53761240919469    2.53552853517836
O           1.88001769868083   -0.23519753036964   -2.54921315318442
H           1.91896450530269   -1.15746477562071   -2.80971666574389
H           0.91880391101474   -0.03105869417457   -2.42457671259758
O          -0.53585204807105   -1.98718515009483   -0.15458877464206
H           0.20787731946477   -1.84201176874874    0.44871910082205
H          -1.85316883806518   -1.37151747586520    0.54309662505014
H          -0.50207540096361   -1.25526344920804   -0.81445887372728
O          -0.58329288487006    0.51717245368410    2.33669391205390
H           0.60945589826467   -0.49882122084947    2.05844474666253
H          -0.49206433045549    1.12803280175862    1.57197241254077
H          -1.42728720533165    0.06990918010746    2.18786924516057
N           2.11513280114390    0.73271850068541   -0.08887960816936
H           2.06022587259769   -0.01693760664876    0.62797893514071
H           2.20206490279012    0.31782765789603   -1.05303373374524
H           1.15532791316122    1.24721475715473   -0.06094915562594
H           2.86948738720531    1.38210312528688    0.10384528516027
