    26
        -50.47008499  Gyration_radius:  2.40464908247 Dipole_moment: 4.420
 S           0.88655531375796   -0.76361840731085   -0.35690318521894
O           1.94713089174381   -1.14625572176867    0.54177886122394
O           1.32264262835004   -0.02869169929127   -1.52903510910053
O          -0.01896300393328   -1.86266331321627   -0.69363731584869
O          -0.05216348388308    0.24189198216396    0.45193773896342
O          -0.79463531740527    1.41577843952066   -2.07755428702705
H          -0.62186205804502    2.21084814550300   -1.56819372690234
H           0.03718990017489    0.88611984451761   -2.01575983246877
O           3.46062094160247    0.93382106870440   -0.10275365500404
H           3.27841060742957    0.86573659555035   -1.04647291035099
H           3.10525428262869    0.09509734006386    0.25816759128848
O          -0.61335769028414   -2.25372151736983    1.86430369658052
H          -0.38527631826653   -2.29290547496871    0.91651668624149
H           0.21343035556965   -2.03469247259892    2.29997083773452
O          -2.55411134101913   -0.40601931602673    1.54173802114589
H          -1.97896910539104   -1.17138381094524    1.77125536194120
H          -1.99946054733627    0.36131062621336    1.70810162447954
O           1.43084867947198    2.35158713910714    0.74800534852723
H           2.27005732601698    1.94266407383720    0.39561178154789
H           0.47646842969177    1.07363804995311    0.58848935287528
H           1.61880344933356    2.58208297634656    1.66019277380553
N          -2.24389331879390   -0.59834652968656   -1.08903774804411
H          -1.40095669741026   -1.24538829849600   -1.04457664855256
H          -2.53114876797129   -0.46960205690254   -0.07473677271008
H          -1.86238259749545    0.29657191139725   -1.49004726299203
H          -2.99023253854790   -0.98385957429266   -1.65736122212325
