    26
        -50.44483786  Gyration_radius:  2.51309869936 Dipole_moment: 4.671
 S           1.22259330743439   -1.37713680793274   -1.15310653959479
O           0.84397079864692   -0.45658333226050   -2.23559501804967
O           2.48538754929892   -1.01713959812482   -0.55787062664577
O           0.14303603493448   -1.54540723174042   -0.20132408501616
O           1.42792279012105   -2.78250670472637   -1.84912447092178
H           2.25793468402423   -2.64431587605379   -2.29271195217750
O          -0.15356527056947    1.99475190975170    0.73731114523375
H           0.08000654799657    2.90006844691957    0.94436730864018
O          -2.85539101857074    0.76477482602505   -1.60478241473988
H          -3.56681503775952    1.38808401588151   -1.45065589018619
O           0.09136365353761   -1.71760344739761    2.51403525817392
H           0.19554396847298   -1.86907536949501    1.55833110942916
H          -0.85048602055477   -1.58721399620299    2.64768279320236
O          -1.96755195339901   -0.15157962702463    0.67539770334082
H          -1.28361779732333   -0.76727211290967    0.34478786172889
H          -1.47387281587450    0.62534991271031    0.97387299543654
H          -2.67860055424123    0.30477208434221   -0.73859320598830
O          -0.43591940544837    1.57857526989470   -1.74034323137435
H          -0.27985184203421    1.76900320393248   -0.72966372774321
H           0.14301995986136    0.70347327151667   -1.98375152274020
H          -1.41272219588227    1.28612239476298   -1.81911908950173
N           1.67856618144755    0.50446468924863    1.62977486558808
H           0.64560650606043    1.37690289431649    1.12386803362680
H           1.22968790077115   -0.19705555760905    2.22157699824035
H           2.07525123932534   -0.00638986819250    0.83492622353071
H           2.43850276972053    0.92293661038520    2.15070947850039
