    26
        -50.45011617  Gyration_radius:  2.45269845885 Dipole_moment: 5.256
 S          -0.65562576625517   -0.00317860187120   -2.01202564454257
O          -1.08138505892629   -1.03460822772019   -1.09007172304813
O          -1.15388103363106   -0.06596267574127   -3.33444986930178
O          -1.02651932894528    1.37845818219058   -1.39417501791710
O           0.88326314478525    0.03566239793404   -2.03768904189972
H           1.30003155024516   -0.31404999823739   -1.14770668764580
H          -1.22325228119098    1.33625954680120   -0.38215317150092
O           1.31437032292988    1.63087746078182    1.43229422882869
H           1.79441885696494    2.15993270370907    2.07065154789333
H           1.40108507429877    2.09462710748457    0.55994985058913
O          -1.37219799727535    1.32829014468126    1.10426652862877
H          -0.45491833360422    1.40559402820774    1.42426270784656
H          -1.69659161708935    0.43570465148678    1.35196123547506
O          -2.27833828222346   -1.18564091496105    1.27151570737981
H          -3.22761352885600   -1.23810609267621    1.14851814139766
H          -1.88228948740309   -1.23302038510981    0.37536995938149
O           1.40724268145041    2.63464672514711   -1.02059943106193
H           1.92955884869220    2.04293734084730   -1.57162352029182
H           0.48711004026528    2.48625998202449   -1.29114507379149
O           1.89874824368640   -0.71170627595220    0.12492232575304
H           1.38416495609862   -1.50496693380144    0.44381560902750
H           1.73326985715324    0.01147540106168    0.75343963081128
N           0.34517045992931   -2.75698463152405    0.80662719222852
H          -0.27024251275887   -2.57028130882271    1.58952740157502
H           0.65128121335370   -3.71945362244190    0.86270226452064
H          -0.20686001169117   -2.64276599348766   -0.03818514036122
