    26
        -50.44831157  Gyration_radius:  2.51298251273 Dipole_moment: 3.978
 S          -1.60199438742537    1.45671346849371   -0.80344690573183
O          -1.91262813837491    1.18475324548060    0.57605628934487
O          -1.10385803111698    2.75768698578843   -1.09148248623166
O          -0.55691542787071    0.40514919123199   -1.28095323254072
O          -2.82279125807618    1.10334985576234   -1.67145549605236
H          -3.10047536573031    0.21065637748075   -1.33137343457417
H           0.36390431929810    0.88748238469922   -1.34491736741996
O          -0.12630733857692   -0.18602132616711    2.05351901685281
H          -0.81661738807949    0.41049767630309    1.71940544923312
H          -0.22003928781250   -0.99831490043723    1.51529841051429
O           2.08695390276437    0.94326262061583    1.25745021727807
H           2.37656319984664    1.54042371045449    1.94857730306320
H           1.25865295582270    0.50233758948754    1.60461849536364
O          -3.11477966385946   -1.07890646069448   -0.28461307857373
H          -2.93131891678832   -0.49047549695596    0.46128869712374
H          -2.40487213563465   -1.73560394020616   -0.27777439976176
O           1.51194462245361    1.78694546222379   -1.18813672547543
H           1.82374469081720    1.55033901454615   -0.27846895745136
H           0.99802995073909    2.60274620751854   -1.12719746510549
O          -0.36935125871318   -2.00652429458190    0.03669210122736
H          -0.42324314030582   -1.26146486171949   -0.57908974852555
H           0.58880132477065   -2.22684383627958    0.04577681735992
N           2.35867346123835   -1.91506609400267    0.00832953702412
H           2.91569100237041   -2.56056172337494    0.55421886209799
H           2.48218010797134   -0.98933374202066    0.40705876491969
H           2.74005221027882   -1.89322710365340   -0.92938062397118
