    26
        -50.44578458  Gyration_radius:  2.53375393611 Dipole_moment: 5.663
 S           1.86919916203413   -0.93044731281419   -1.77857831594897
O           1.23383500083884   -1.58100085028563   -0.65130306178175
O           3.02009770263070   -1.55561446856993   -2.30879496911707
O           0.82862118607517   -0.72599286035142   -2.89390562640083
O           2.19168696841018    0.52980450409511   -1.33834263838097
H           1.94927717213880    0.68594967298559   -0.38678748419219
H           0.03731279676017   -0.24215755509542   -2.51014815885955
O          -1.42199664027154   -1.49544140852116   -0.01848752484584
H          -0.49895686507328   -1.67413812025294   -0.26701285868349
H          -1.76330812883131   -0.97295979298781   -0.75280096784659
O          -1.18881238076185    0.56118306602771   -1.94843291131348
H          -0.97926410848344    1.17320191345250   -1.17174603605371
H          -1.51693307728196    1.12777549497078   -2.64877794678693
O           1.62109477534985    0.99838333606009    1.16409846724395
H           1.28078855714778    0.14618921787995    1.55578340128204
H           2.42916823697246    1.21384068478331    1.63294215304368
O           0.81689250921318   -1.35806092367386    1.98488852835620
H          -0.13554771637187   -1.46752781714068    1.89117068035835
H           1.17902701335404   -1.73486283515793    1.16526722435523
O          -0.73073268355304    2.07466200313524    0.09272325686925
H          -1.31555822511344    1.65832711823769    0.77513692952030
H           0.16689285628549    1.93704494420121    0.42134277373574
N          -2.14472819325424    0.61372879267460    1.87037706760091
H          -3.13255585489438    0.79920560481772    1.98499970447099
H          -1.74675861093225    0.47430836634632    2.79046378471765
H          -2.04874146239284   -0.25540074482404    1.34592450866457
