    26
        -50.44539327  Gyration_radius:  2.48348326295 Dipole_moment: 6.102
 S           0.67911865738567   -0.42040244501977    2.14536853010805
O           0.56164744785690   -1.24494268313054    0.96262591307184
O           1.57173701668131   -0.88546637805670    3.14117250710860
O           1.04714273422408    1.02377332776731    1.67345599186304
O          -0.72391077592516   -0.19741672304381    2.73057135912961
H          -1.13573230700318    0.63948860889818    2.29768662863388
H           1.67690166098496    0.96729602049105    0.89536543515934
O           2.51711194065040    1.06030831402347   -0.43348762194690
H           2.84756422046836    1.95355853794363   -0.55120818784833
H           1.84968030946182    0.90559237736600   -1.14271739232090
O          -1.74608686435334    1.01690859778353   -0.86738602125757
H          -1.94693065377767    0.08726230383000   -0.63754571930397
H          -0.91073524229881    0.99378230052724   -1.36023492226843
O           0.63780051896152    0.64619571750868   -2.28356757212028
H           0.54590656510046   -0.35727205474870   -2.16915996564085
H           0.74185929433814    0.80909987657984   -3.22200606984440
O          -1.59450808724904    1.88234369245689    1.59233770449596
H          -1.72089157969262    1.63331548563772    0.63272530790847
H          -0.81025650219325    2.43631912657301    1.62712058308856
O          -1.98456724034765   -1.45585519668898    0.21414585394524
H          -2.51093006626730   -1.40504819366625    1.01441012177996
H          -1.05080738573728   -1.45927934593683    0.50940166638648
N           0.39847219265375   -1.91658410554203   -1.82572439821030
H          -0.57144663737649   -2.21097129942538   -1.82378220978530
H           0.68415550252341   -1.86061766562045   -0.84966419311865
H           0.94770531114146   -2.64138821645047   -2.26990332887405
