    26
        -50.45432577  Gyration_radius:  2.48303737826 Dipole_moment: 5.122
 S           0.23046988819904    1.36434217541149    1.88160741781134
O           0.37903192114665    1.55089656770602    0.44937010144117
O          -0.70520602206367    2.21709226606213    2.51960646290075
O          -0.16090835562483   -0.09705464942892    2.14449892835190
O           1.62243936569032    1.50899170669967    2.53351315271490
H           2.22795086738652    0.87276702379869    2.06762759874221
H           0.10129408206387   -0.77879504388806    1.39355547288972
O          -2.26410507262645    1.18622772163715    0.32050310331191
H          -2.42702733055826    1.49359861478135    1.21725707196916
H          -1.35204701421834    1.46425890013085    0.13612786000734
O          -2.15370616677290   -1.35457564710192   -0.54824520548210
H          -2.84865362883669   -1.85841568158742   -0.12192323543135
H          -2.25872181549401   -0.42668104805892   -0.23709514735039
O           0.37803925808474   -1.70485600418115    0.30387070546835
H           0.88627062821597   -1.17555668828345   -0.36873511840756
H          -0.52939900104627   -1.77010925643837   -0.06122659946509
O           2.89601785313845   -0.32515018560473    1.17017581686853
H           2.78555758340284   -0.17238626672576    0.21924733244380
H           2.49276181896250   -1.17988895587414    1.35179153111514
O           1.60131687461999   -0.02366927930255   -1.30437949459769
H           1.23308502698354    0.72675500977296   -0.80082511221971
H           0.97886199824663   -0.13260714121445   -2.06396853269480
N          -0.52597679081441   -0.32905447213332   -2.94115958515048
H          -0.50591264318994   -0.85038583759210   -3.80859878025044
H          -0.90628337736677    0.58844182131198   -3.13900890671077
H          -1.17514996754090   -0.79418567985510   -2.31358680828142
