    26
        -50.44866777  Gyration_radius:  2.53183367774 Dipole_moment: 7.426
 S          -1.83197129250979   -0.94357498522402   -0.73278992715809
O          -0.53423435790481   -1.32531980666637   -1.25397862633486
O          -2.85510857096905   -1.91581076950597   -0.77290531866990
O          -1.63655759735365   -0.41079170559026    0.70105764704688
O          -2.30599722631786    0.31514726738679   -1.51330466702357
H          -1.60072362742026    1.01496816610906   -1.47029624941564
H          -0.64574579767182   -0.23399292285616    0.94341746186066
O           0.76591166744201    0.08829622683174    1.30009230973551
H           1.12305526382311   -0.76815455456870    1.62837607034038
H           1.19453126308691    0.23493017310811    0.42226805053358
O           1.49823622868199    0.37729409964633   -1.24368243402934
H           0.79563977613795   -0.28108844082533   -1.42090386596171
H           1.09844996449219    1.22639887539280   -1.46593834163166
O           1.76173742106420   -2.73218327860672   -0.83354304630019
H           0.84565341386412   -2.48649107650637   -1.04280829926325
H           2.30278270908389   -2.03378970678754   -1.21348268291125
O           1.75928612489082   -2.32156723607452    1.81270855924005
H           1.75705590374873   -2.61584989971499    0.87321724511076
H           2.60826245277038   -2.57392594763073    2.17726627242755
O          -0.57964168680533    2.25734793832760   -1.27190257997752
H          -0.68405321065144    2.41036560875672   -0.27807412474069
H          -0.95842023854241    3.02002474718503   -1.71250280754409
N          -0.93733075024281    2.48022666966762    1.32525920773132
H          -0.98585251009614    3.34299876892329    1.85230324365812
H          -0.17062426244686    1.92398003309155    1.69225553499324
H          -1.78434108015846    1.95056177613784    1.49789138830212
