    26
        -50.45070578  Gyration_radius:  2.44713451507 Dipole_moment: 3.620
 S          -0.84781758953194    0.46773002867013   -1.81916284330161
O          -1.71682497952810    1.12430563610636   -0.86158548646800
O          -1.28947089757359    0.43470938851828   -3.16173192603020
O           0.55677942461263    1.07735104153562   -1.74586029238556
O          -0.59764479260848   -0.97315465986675   -1.27158725262459
H          -1.47004468137046   -1.23285780481452   -0.78800038402917
H           0.83197071599505    1.26879670722777   -0.76178139589793
O          -2.67430918811032   -1.31334102016871    0.08479630108300
H          -2.25304356471834   -1.28495019639092    0.98459946445736
H          -3.03501004810475   -0.43384414971541   -0.07433848597895
O          -1.28305096432782    1.79142713350620    1.62143563335994
H          -1.52337834182218    1.59033317187607    0.68458864138428
H          -1.78448634492190    2.56772552575247    1.87382077473578
O          -1.22470082873248   -0.91235831889022    2.25899987910075
H          -0.32413619381283   -1.19246694272375    2.05267394339783
H          -1.21988279383026    0.05794242672207    2.26564623794256
O           1.20884408222219    1.38920612651743    0.66368978164058
H           0.42331716394998    1.69668935636344    1.15166978864785
H           1.31306402069184    0.43230743870288    0.88620645583844
O           1.23258162588536   -1.26246004764566    0.78740673052443
H           0.58130073173656   -1.38863447341823    0.07919414308620
H           2.09061122101019   -1.30045398377550    0.31104432147211
N           3.12678539668880   -0.76869688536894   -1.08831975467656
H           3.56786721011525   -1.46723342196209   -1.67390224344086
H           3.84233257026645   -0.11465561822502   -0.79486334659658
H           2.46834703581711   -0.25341646854283   -1.66463869522661
