    26
        -50.44655263  Gyration_radius:  2.44775319312 Dipole_moment: 2.813
 S          -0.48116604131754   -0.09869598175363   -1.43165091146207
O          -1.72723198708339    0.52238987948332   -1.03723855783484
O          -0.12830510692416   -0.07526091982685   -2.80535654430700
O           0.65380087244367    0.61409655787362   -0.64205085428361
O          -0.47819871304986   -1.54501151658927   -0.93097367179917
H          -1.09754237605359   -1.58744261497924   -0.10146694006024
H           0.35249690345258    1.12581455412334    0.15674564624262
O           0.07039724555647   -0.46783327645452    2.43685239746619
H           0.80124046227610   -0.89892205311355    1.94104422730354
H           0.16135970453142    0.48151836462485    2.29830792012657
O          -2.12413392881547    2.93407625071424   -0.02501135827920
H          -3.03838677313023    2.99661508710680    0.25774648859660
H          -2.05365037014643    2.11332155608538   -0.55665531887114
O          -1.97058533024368   -1.30558838836833    1.06121506894465
H          -1.28094254836994   -1.01925639824318    1.72697534895181
H          -2.37490241000759   -0.50775163648499    0.70177575305115
O          -0.03115712066074    2.15212100190542    1.35798443430910
H           0.62480692034366    2.85238543458585    1.36413595194412
H          -0.85144738211310    2.53903451466333    0.96130217708031
O           1.82166026676882   -1.77541165314203    0.85444566314698
H           1.36356762168553   -2.60987163493349    0.73538590244326
H           2.04840149005413   -1.47927299058609   -0.05714397936377
N           2.40052653835821   -1.30196017231083   -1.79849537764974
H           3.09601233925127   -0.57742613963308   -1.92792771430232
H           1.53888545092634   -0.96777253193400   -2.21726084235941
H           2.70449426219900   -2.11389528289271   -2.32268490918310
