    26
        -50.44597216  Gyration_radius:  2.56040772214 Dipole_moment: 6.335
 S          -1.28328041308424    0.84813729104467   -2.04350924372393
O          -2.02659557719864   -0.11713537997314   -1.26617293295841
O          -2.03015334028619    1.73566354877210   -2.85185938386526
O          -0.36303458996316    1.62667631975750   -1.04140821798934
O          -0.23938620037139    0.12093634780543   -2.91310384554148
H           0.35059123808295   -0.47112998497435   -2.35221936996614
H          -0.88194850791129    1.64683526581839   -0.16578993222855
O           1.98129544131109    0.89367041470871    2.20949155931480
H           2.18236974407018    0.86413493572318    1.24222303193412
H           2.03043074984465    1.81863133652486    2.45616291632763
O          -1.82283319409640    1.31979316578466    0.99760314250409
H          -2.34198798278278    0.72752238556012    0.43369471662892
H          -1.32665775970913    0.73936102821245    1.61868664120864
O           1.26089107683040   -1.42332225912002   -1.48720492175552
H           0.59502030087965   -1.74643744242017   -0.77186840426339
H           1.51198571445609   -2.18772149992513   -2.00817433493462
O          -0.34512964357856   -0.29323706159913    2.57049818765244
H           0.55298020246420    0.10739413297213    2.44369876087626
H          -0.50700462518273   -0.29185438038178    3.51509474992454
O           2.27341808081595    0.93404932864892   -0.42881059678502
H           2.18605862441405    0.04178153386334   -0.79350175913988
H           1.47887701278490    1.40264957451340   -0.72056625533310
N          -0.57814384246943   -2.07473905646499    0.19652095774541
H          -0.44497322099130   -1.65439981581145    1.11184562482190
H          -0.90433312340869   -3.02299859728308    0.32743526148107
H          -1.30845615489603   -1.54426115175064   -0.27876639189103
