    26
        -50.45378250  Gyration_radius:  2.41661936062 Dipole_moment: 6.873
 S           0.22305585753606    1.21567782255285   -1.69687104614745
O          -1.01963813794038    0.46007447786036   -1.94987743371574
O           0.01188482225930    2.60359326444328   -1.40147904098244
O           0.80041428473655    0.53423560235700   -0.37258074151554
O           1.22199678987521    0.89297087751975   -2.70619666492878
H           1.16538351538333   -0.67145539133956   -2.49781124278858
H           0.82791918923307    1.24850910787617    0.31805538122997
O          -1.38446283456222    0.88285626194085    2.24969632299779
H          -2.10166833599748    0.85342457158335    2.88379515274095
H          -1.67208575204313    0.32522898746877    1.47565723736967
O          -1.93586222318823   -0.71372072161134    0.24705977306019
H          -1.73789420102118   -0.20014475686988   -0.56404409783631
H          -1.22429126898462   -1.36633095326207    0.31460635225851
O           0.48943962441655   -2.27000800940896    0.38964091789772
H           0.74415860021807   -1.55278342460116    1.02651267865290
H           0.68701636501799   -3.09509169608900    0.83561483572334
O           0.56700519663912    2.54925135503211    1.22739302805423
H          -0.24261360520697    2.25001745233295    1.67193700578649
H           0.29535459279905    2.97389990076291    0.39462361622798
O           0.99495026671222   -0.50128877267912    2.30929672298467
H           0.15602318386183   -0.01204911144511    2.41415983220552
H           1.64773768716212    0.16204526700641    2.07552024127672
N           0.55089585242380   -1.51076507453628   -2.24016756484064
H           0.73160588489575   -1.84063640432201   -1.26996446248811
H           0.56474945565418   -2.26171925568871   -2.92184158576777
H          -0.36107478988296   -0.95579139688563   -2.21273520746030
