    26
        -50.44215110  Gyration_radius:  2.63101964512 Dipole_moment: 5.092
 S          -0.96070145813255    0.00398866021498   -1.98373366777719
O          -1.32288477127551   -0.57990136718924   -0.70503373020184
O          -2.00692815204139    0.09476139260523   -2.93114031396235
O          -0.30374289047858    1.38141638520898   -1.67481575453864
O           0.22459066248570   -0.77813718402928   -2.57823679016353
H           1.06708362350490   -0.51098504478630   -2.07198380623002
H          -0.96858567005885    1.81543737335881   -1.03583203490004
O           1.21730856608495    0.91684806782023    2.73839952190658
H           1.09708462101329    0.19209225491316    2.09668565166160
H           1.22765397212401    0.50934671744527    3.60601406731818
O          -2.05328445725813    2.02201769780337    0.01591537665833
H          -2.34417791598234    1.10610678450078    0.09155658262322
H          -1.66210415794314    2.26205190823723    0.89228701792298
O           2.15559639264986    0.03400176231154   -1.12936660695640
H           1.80410642565424   -0.32059320282269   -0.27524944246003
H           1.97250136465508    0.97811227101839   -1.13412019746004
O          -0.85127886852721    2.58811264773309    2.32263536183872
H          -0.08865029164164    1.98996674439896    2.48127109000712
H          -0.51060217679364    3.48217299915393    2.37567513959492
O           0.75590371604355   -0.99041853290900    0.86566514299229
H           0.84100094167947   -1.94559671388409    0.66717898107402
H          -0.08681331876859   -0.76014217563954    0.41622040610382
N           0.32455803851074   -3.26048193198722   -0.53974074419617
H           0.89837418833128   -3.18976080525116   -1.37229130390814
H          -0.55442005322102   -2.79853187286240   -0.75432822967741
H           0.12841161931785   -4.24188485515537   -0.38363170717915
