    26
        -50.46516759  Gyration_radius:  2.53872586238 Dipole_moment: 5.804
 S          -0.28542104084404    0.08582720711576   -0.54496945187983
O           0.60290269926902    1.15734398191465    0.16401909218736
O           0.58027697239811   -0.39281390244328   -1.63489320673514
O          -0.51580878931341   -0.98234274526169    0.42347245175704
O          -1.50306339231377    0.69985123299900   -1.00791543904282
O          -2.18148043702757    3.22234305381345   -0.51270333688237
H          -2.01971621458195    2.29391912421165   -0.78214927264537
H          -1.86270953178690    3.76835831295491   -1.23226729050647
O          -2.52903216500510    0.25615263247212    1.64723655209693
H          -1.83881035875174   -0.33557275612965    1.29135198279629
H          -3.07569797640107    0.48433458628766    0.89019449987973
O           0.84042189462913   -3.08193546345110   -1.63179807131388
H          -0.01232019964868   -3.49716022325700   -1.76935127974575
H           0.69578376475995   -2.12319711724918   -1.75848781895074
O          -0.93835643831351    2.38619790018832    1.72591499894458
H           0.01440657727878    1.68014609499072    0.83580789021498
H          -1.41746801864660    2.94053544665514    1.07810374210016
H          -1.56751140331355    1.65804822615790    1.94100552558579
O           1.55847224470635   -2.51897853787777    0.89573500028231
H           1.43311762746439   -3.05368917372764    0.08521818437962
H           2.38471788343545   -1.39803017192514    0.35832583848813
H           0.71182870592489   -2.01741145851586    0.95350451117192
N           2.71108029937434   -0.51317114507761   -0.21058806933115
H           2.66687092873020    0.32060048955614    0.37313488389731
H           1.92361685639487   -0.40823515236934   -0.93955324575901
H           3.62389953156284   -0.63112043201523   -0.63834867099596
