    26
        -50.45402688  Gyration_radius:  2.47059586561 Dipole_moment: 3.619
 S           0.95418349666199    0.30146443822755   -0.96341221620481
O           1.47151292596989   -0.38859633885614    0.18975101607098
O           0.62464398927644   -0.55610547968014   -2.06517703313448
O          -0.28154795581830    1.12622473473710   -0.54885770246393
O           1.91941813101217    1.37985920396890   -1.43542410575203
H           1.90470772219707    2.11586332173306   -0.71651169247727
H          -0.82077061302604    0.68888627981514    0.21657932573069
O           0.68563515480473   -2.89790061846274   -0.40516294882147
H           0.73068555747027   -2.74221642638034   -1.35289579587030
H           1.10501891879137   -2.11515742867211   -0.01152396776058
O          -1.64921481152833    0.07554905849613    1.28375812275313
H          -2.53981397265929    0.42225089911495    1.18937001736812
H          -1.70957922852058   -0.89175660081816    0.97576872876772
O          -1.85353763959618   -2.24869147906674    0.23128468721904
H          -2.09232619358737   -1.94780258902691   -0.66575869891364
H          -0.96486166672661   -2.65131095378330    0.13303527041923
O           1.61601872486296    3.10297541046590    0.38497112814265
H           1.42591670453294    2.53188832208640    1.19648924341015
H           0.77621839181931    3.49570325553883    0.13452081160740
O          -1.99378974111654   -1.11828162318553   -2.23905110520994
H          -1.05488924131216   -0.85009687612212   -2.24387790832487
H          -2.15749027517685   -1.54184102415941   -3.08331821381871
N           1.02401353711055    1.41593656565857    2.31566789828665
H           1.53193610711315    1.39592509505998    3.19085906618805
H           1.30828553163938    0.60534555130246    1.76711553792326
H           0.03962642580118    1.29188530187276    2.52180051476514
