    26
        -50.45234085  Gyration_radius:  2.45941205928 Dipole_moment: 5.695
 S          -0.91292182642065   -1.98435290439173    0.00096540743700
O          -0.90071611789440   -1.06732643857259    1.13045415047726
O          -1.98666128880512   -2.90682046297486   -0.02361081659935
O          -0.94124453303194   -1.11108507290627   -1.28518848281050
O           0.42741441389114   -2.70894001700055   -0.06727504786436
H           1.15849223352565   -1.98616058351247   -0.13124320187058
H          -0.77706424283611   -0.12795039892007   -1.08604233424226
O          -0.61285734764035    1.37561183297361   -0.75768094228255
H           0.17428523197776    1.47615800772354   -0.19056108199319
H          -1.37636907965181    1.49406457414231   -0.15999606366487
O          -2.54272934877054    1.00038632173478    1.11525942290721
H          -2.03617097450651    0.16109485820364    1.18048120225354
H          -3.44468543299858    0.75495926572054    0.90563233553115
O          -0.17093571906677    0.73816630314788    2.99020965567837
H          -0.35165566622821   -0.11768813928611    2.56718559926310
H          -0.98589973632607    1.24088150143239    2.88942848747005
O           1.44078708302317    1.44813826845140    1.03856084513561
H           0.90032019231087    1.21051336949816    1.83801811161622
H           2.13484514578478    2.03716326499989    1.33671942132949
O           2.09323077130274   -0.84316935067051   -0.33325434118037
H           1.93120840372313   -0.52696215544173   -1.25977848945492
H           1.89940857373009   -0.08196896487447    0.24319721562548
N           1.36317344498483    0.05847300021781   -2.76692712653191
H           0.66524052337832   -0.63810798318411   -3.00056426681727
H           1.97921522376914    0.17351232238682   -3.56141570721640
H           0.87229007280151    0.93140957115007   -2.61257397211963
