    26
        -50.45188997  Gyration_radius:  2.46262223538 Dipole_moment: 2.894
 S          -0.96868582981122    0.20550901245254   -1.61949829428702
O          -1.63302132830165    1.26875967026651   -0.90700133481417
O          -0.13336305322635    0.59513926189777   -2.70620312338699
O          -0.14399736670621   -0.61448234136564   -0.59753648269989
O          -1.99400779397987   -0.84284711413096   -2.07458895183051
H          -2.50856614010849   -1.01555436563331   -1.23072021148254
H           0.57120233252025   -0.03956012627487   -0.13045181626013
O          -1.10579823574888   -0.86918443064560    2.25792481880267
H          -0.93639037347930    0.09480207416342    2.07198348186016
H          -1.42468155241851   -0.91806486392595    3.16082762560954
O          -0.66470805447413    1.63189239773790    1.57792914192253
H           0.28681133725006    1.65048682418754    1.40970888318077
H          -1.08195963672114    1.68211864727590    0.69763861786495
O          -3.01571509175049   -0.79433481272638    0.27510530672785
H          -2.97984489759308    0.16743229295047    0.19291451457500
H          -2.34217293647457   -1.02448172243389    0.94672683253533
O           1.72527014349574    0.68223171465080    0.51409525688713
H           2.27911208230433    0.73519498158020   -0.31322604141864
H           1.99200773400205   -0.10934865315405    1.02563422436640
O           1.45638860510951   -1.74197086578012    1.61919471539108
H           0.55976993461520   -1.51381038051446    1.92713049912521
H           1.31810884914012   -2.28017222589498    0.83721575743669
N           2.68077322183840    0.75013876418033   -1.95429434516104
H           3.20565093802099   -0.02290017396987   -2.34524398732827
H           3.11465241057644    1.60621219345577   -2.27761633125343
H           1.74316469193808    0.71679423165935   -2.35764876637127
