    26
        -50.46914343  Gyration_radius:  2.52110447092 Dipole_moment: 4.904
 S           0.47650414280683    1.03908178713478   -0.22712745563890
O          -0.82064834956848    1.11673118581823    0.46591917841945
O           0.92906594167770    2.31051649308894   -0.71945888759728
O           1.44365336654441    0.32345214929707    0.59444902942045
O           0.23022412260705    0.08190738670253   -1.45617071660927
O           1.00249138849790   -0.89531779420690    2.87724072068051
H           1.07515493516722   -0.28598965176437    3.61286180959656
H           1.26336695478928   -0.38423259313519    2.07342968142779
O          -1.47009540882174    3.33778268743773   -0.98793297149074
H          -1.81274643681075    2.78451819484665   -0.27637482891258
H          -0.50017297334907    3.24926735168258   -0.88501483163039
O           2.28810254041499   -2.20921453834948    0.31148695404937
H           2.13393245312994   -1.24506249423458    0.27006751425699
H           2.40317738033189   -2.40885074466894    1.24360523425862
O          -0.12947763382673   -2.57173660717664   -0.72998390992974
H          -0.08299091384957   -1.81057196076514   -1.32717772171817
H           0.79794983044496   -2.67785720440620   -0.41509838468737
O          -1.19661288981309    1.61286733910157   -2.95314185011646
H          -0.61442180741267    2.04879603378162   -3.57957184477298
H          -0.33132906557693    0.62556672687631   -2.08161092356758
H          -1.45486420052629    2.31166864356927   -2.29435772967950
N          -1.15307597778195   -1.28889620399567    1.31246484078363
H          -1.11439217722313   -0.27146608290771    0.96079545932247
H          -0.81820833107493   -1.90976367401231    0.50321251442443
H          -0.45958216027313   -1.33977771889911    2.08686958349297
H          -2.08500475050656   -1.54341871081542    1.62061952621375
