    26
        -50.44830196  Gyration_radius:  2.54536632745 Dipole_moment: 7.035
 S          -0.30560675740764    2.37985562569115   -1.12863045118598
O          -0.28096399776085    1.32742153237334   -2.12120490425966
O          -1.00442748256925    3.56038480941235   -1.46747290434378
O          -0.86071932807137    1.74210354074736    0.18755781350186
O           1.13472444409199    2.73335556456092   -0.71374071213000
H           1.63189132912080    1.90914914141394   -0.42689615490702
H          -1.54860198436300    1.05849792187236   -0.12061856487894
O          -2.32754961919074    0.01418827128589   -0.93391925977022
H          -1.89624312002501   -0.84653569246960   -0.73008361339178
H          -1.94898104218666    0.30536301250290   -1.77504378494891
O          -0.91222443285096   -2.20118884326621   -0.38202693444487
H          -1.24458628970757   -3.08271836677949   -0.55482518269555
H          -0.74887531280898   -2.13600353725190    0.61742252165553
O           2.40639190057190    0.58753138722866   -0.02421903937290
H           1.97163014932430   -0.08574316894010   -0.63822402247183
H           3.32221281329568    0.65726242167461   -0.30018770450542
O           0.71346878502203    0.57744104444676    2.22292626506888
H           0.07541515617338    1.13610379004436    1.76133112454669
H           1.48441981662034    0.54203458610584    1.64185198356775
O           1.12891320292693   -0.90152581087604   -1.68057092756887
H           0.46570174245533   -1.46550852637617   -1.24332983703990
H           0.62961118557992   -0.14422230290062   -2.04369067554675
N          -0.52020606523146   -1.98284269070386    2.19718414766558
H          -0.05768854358730   -1.07225098905622    2.29536056923745
H           0.07528663653867   -2.67409600116016    2.63592061685626
H          -1.38299318601502   -1.93805672953956    2.72512962150366
