    26
        -50.44288250  Gyration_radius:  2.49792608207 Dipole_moment: 5.627
 S          -2.16103822337742    0.79747860316351    0.95522265268799
O          -1.78418361852633   -0.58147294893643    0.71566205177542
O          -3.41766188410240    0.99975816578327    1.57538321280649
O          -1.00481378235040    1.41336440959019    1.81088160001718
O          -2.08403414969499    1.58784859057301   -0.35241377714317
H          -1.10455914925940    1.64290771047092   -0.64801101819571
H          -0.44121799546405    0.64270434165632    2.10706663226189
O           0.35127349146933    1.67505557826453   -1.00247235920224
H           0.94601933359763    1.61946295261461   -0.23089081662815
H           0.60081899943479    0.95975923420649   -1.63732108082552
O           0.43091715732917   -0.63971078634455    2.48370212633138
H           0.80047072577991   -1.02702220658075    1.64499291371452
H          -0.25083380290548   -1.25270843743886    2.76648403452622
O           1.42112932551494   -1.49518271500430    0.19321283981743
H           0.65879213719440   -1.78517582887865   -0.34719627385668
H           1.80578981729214   -0.74096805184156   -0.26023343592807
O           1.87098570772137    1.57493867061050    1.27678056729174
H           1.75832859186818    0.82186082435419    1.86713446553888
H           1.43294286513710    2.31471257374140    1.70501430814643
O          -0.84509314250875   -2.08087768540555   -1.19925488614352
H          -1.28696360991851   -1.47951779851728   -0.55503120490338
H          -1.28718302204512   -2.92661448502688   -1.10883372374279
N           0.92011439571617   -0.31363305023191   -2.74821900740099
H           0.23394095690432   -1.01434823384292   -2.48004197674384
H           1.80597214649877   -0.78286939659591   -2.89267005346237
H           0.63008672882111    0.07024993953485   -3.63894778070882
