    26
        -50.44525965  Gyration_radius:  2.61380243237 Dipole_moment: 6.459
 S          -1.03033446773946   -1.69533378136021   -0.63997421688900
O          -0.92021617646754   -0.30095306105635   -1.04397020082582
O          -1.40515466688692   -2.59828888906172   -1.66358479228330
O           0.31201530985776   -2.08418963560088    0.02567932888690
O          -1.99952744928882   -1.78410214407668    0.54079463574752
H          -1.61706746266123   -1.20014886732931    1.28475877044531
H           1.06796845303921   -2.03404397402945   -0.65084212805798
O          -0.92432276532054   -0.22363100221456    2.23270995396939
H          -1.34970542449961    0.65185713589191    2.10008953378943
H          -0.03447065070598   -0.11112968737192    1.86312764990008
O          -1.82531144949627    2.22687525347710    1.50680879499878
H          -2.49754497948888    2.63703655674045    2.05253262327435
H          -2.26603755470578    1.99390844142032    0.65657224468299
O          -2.89458701891016    1.43926246869764   -0.80290581975551
H          -2.92366158340503    1.94296746831070   -1.61808601659746
H          -2.24025395121462    0.72367651468395   -0.95150111053826
O           0.73608452616759    1.12424931380987    0.48353666000142
H           0.19968687669501    0.62950813573287   -0.16925234286489
H           0.18529460809486    1.86487483725882    0.75975838853996
O           2.29521536132788   -1.89515990658872   -1.55162121649769
H           2.90592811023984   -2.60738392684439   -1.35074840644714
H           2.72098070729036   -1.04302345526996   -1.22889750011359
N           3.33000673961765    0.34149043696696   -0.57371302814091
H           2.48965719310854    0.71587562387992   -0.13491622612911
H           3.63968669871838    1.01248543318257   -1.26523004425562
H           4.04567100662194    0.27332071075274    0.13887446515671
