    26
        -50.45516427  Gyration_radius:  2.43693924687 Dipole_moment: 7.779
 S           1.04185589594233    1.54747633693063   -0.50400438300637
O           0.89653126792466    0.14974036858989   -0.89505172415944
O           1.27985787815162    2.43661675553366   -1.59760621977339
O          -0.37050176712001    1.93008506617934    0.14745325168973
O           1.97817179396094    1.66039518466411    0.62392991570922
H           1.79086917935450    0.56408928663841    1.50112934497559
H          -0.92434340069565    1.95355002283796   -0.70210578186865
O          -1.13240373081941    0.17783843708532    1.95434832146438
H          -1.87736860543031    0.54554361641285    2.43265375950585
H          -0.88248886151960    0.84816155900345    1.27092649931446
O          -1.34887635436364   -1.93900059687425    0.07479914202435
H          -1.37117207454199   -1.23233244794480    0.73570680053910
H          -0.42831223903786   -2.23051208333049    0.03923343830246
O          -1.83276523365237   -0.82575973926332   -2.35980973296891
H          -1.58944712892634   -1.23368120222603   -1.50141394084620
H          -2.76068216593111   -1.02429912321823   -2.49653359619923
O           1.50247609699253   -2.10247035991437    0.11844781198728
H           2.14364077677922   -2.55117762941583   -0.43393491949976
H           1.27464843053656   -1.25429873206493   -0.36468695858021
O          -1.33621224972874    1.80615981140767   -2.17620995608130
H          -0.44529282190482    2.03251956688911   -2.47953927664733
H          -1.45536783820805    0.83960842530649   -2.33197611134553
N           1.53842566314087   -0.32680912414306    2.12523768716531
H           2.10670988272791   -0.37072862202789    2.96346502937017
H           1.67034485770119   -1.16017366005086    1.51265186762558
H           0.53170274872508   -0.24054112703663    2.34288972129877
