    26
        -50.45847309  Gyration_radius:  2.50666537334 Dipole_moment: 6.440
 S          -0.27106096637971   -0.42068503333465   -2.00579002839942
O          -1.09093280672488   -0.64718404734725   -0.80313064245437
O          -0.77781006292877    0.64818116284141   -2.80995543374058
O           1.16840199037357   -0.03596152948532   -1.45989523206185
O          -0.00428402741220   -1.68440983862127   -2.69434376927797
H           0.88755403733955   -2.31938781907243   -1.78035257637100
H           1.11026507602616    0.83045674354360   -0.96371696021193
O           0.57659504888652    0.56846065690132    2.40694330683549
H          -0.34847167954730    0.90914070077869    2.41700631724063
H           0.89336839943710    0.61717748123307    3.30991437159296
O          -1.81162262444025    1.77911308702049    2.26953068226145
H          -2.01327152422150    1.73304501364339    1.31960929447247
H          -1.83965801791030    2.70967174638941    2.50014275371329
O          -1.80730819820830    1.81269298288340   -0.47404860683555
H          -1.92241552620407    2.10373188542594   -1.38393004141313
H          -1.64922522860308    0.83992324316843   -0.57086303156746
O           0.84306835668801    2.04028379487966    0.04597942764329
H          -0.11629123407157    2.14893164631525   -0.12010317326077
H           0.91553553042832    1.58878977481602    0.90211961894680
O           0.23183895447891   -1.84751034776482    1.07392445621279
H          -0.42628366481702   -1.46622089222334    0.44161453579300
H           0.51324525618592   -1.07922903323919    1.59944130120802
N           1.59463519017603   -2.66161109038819   -0.99229957503955
H           1.76691703449101   -3.66002556830806   -1.04897406080609
H           1.12917534633061   -2.38275008755499   -0.06034382646258
H           2.44803534058424   -2.12462461250495   -1.11847909797589
