    26
        -50.46914342  Gyration_radius:  2.52092649998 Dipole_moment: 4.896
 S          -0.04289281100197   -0.72075823211968   -0.91454024094919
O           0.21864885782125    0.80467718528221   -1.21788820252611
O          -0.20285351248680   -1.41545219564577   -2.16171341055138
O           1.11406701862797   -1.13245185754021   -0.13073654513234
O          -1.25644498490787   -0.74436623666229   -0.08033723635378
O          -2.79517708499452   -1.04311486493031   -2.31725496865116
H          -2.86775050315501   -1.00696099321580   -1.35627922795797
H          -1.89739012607283   -1.40952820594320   -2.45385669557555
O           3.03054880871379    0.42951763821597    0.91499925198947
H           2.45436924017400   -0.12997960114214    0.35813071171613
H           3.19283490466060   -0.08382145098229    1.71001063325351
O           1.19749709481480   -1.63784224339292    2.44386730321536
H           1.22481986931311   -1.55347168312784    1.46027565161779
H           0.95715788846057   -2.54744367278162    2.62435105201640
O           1.08338711337744    2.23584855626845    0.99620954227601
H           0.79823581758184    2.09865101797407    0.08074504906986
H           1.94537885134145    1.76146881446842    1.04516896019219
O          -1.69367270340957    1.27858731488213   -2.87256444520097
H          -2.26602949196380    0.48116285039515   -2.71278509230085
H          -0.50590111970519    1.05408373922298   -1.86206681740341
H          -1.35178497094202    1.17868244558283   -3.76387469422350
N          -0.48360288681899    0.43243456161443    2.07203012265175
H           0.12889839110132   -0.29081716459786    2.50208832381946
H          -1.20703297804154    0.74492215161678    2.71018115366441
H           0.12583894303530    1.24795446596713    1.73146716254526
H          -0.90114961551622   -0.03198231940031    1.19437264880044
