    26
        -50.45276767  Gyration_radius:  2.53250694836 Dipole_moment: 8.974
 S          -0.16307946850782   -1.82866375271792   -1.56810665342600
O           0.45683604829136   -1.74218485098863   -0.22080059517522
O          -1.01432629883678   -2.96623906829386   -1.68818865372435
O          -0.90212679942061   -0.56022466402209   -1.79248562320306
O           0.98147741177070   -1.89319270438771   -2.60757428594561
H           1.51977700532202   -1.06188034945024   -2.52803291272560
H          -1.85383450410374   -0.72449728792649   -0.46834182077911
O          -1.60727931212143    1.39246017559733    1.82113533168626
H          -2.18115237426269    1.74055560558113    2.50470164102435
H          -0.71553385015248    1.26030796412302    2.24546608197225
O           1.80055985015046    0.38320034066482    0.52507665137439
H           1.42163590522176   -0.50224146680346    0.32081809015842
H           1.17125125046909    1.01576276000316    0.10741304827126
O          -0.10719685827137    1.72170747386292   -0.77195966952818
H          -0.78580946840884    1.93758038202538   -0.12506070669444
H          -0.43140924721597    0.92195434738307   -1.25150673293004
O           2.24935525530797    0.37433092121868   -2.21369126726622
H           1.59757140787666    1.07273722612455   -2.33204753947394
H           2.45995610468718    0.36392085566957   -1.26325664411924
O           0.74857907593177    0.93818121329127    2.87578495157797
H           1.25313307410761    0.64212811202659    2.07274314824870
H           1.27645160692746    1.63052557815607    3.27585086307102
N          -1.84846101072050   -0.96963912340265    0.56224524916292
H          -2.57839024844836   -1.63255401362580    0.80060387068065
H          -1.86853841276393   -0.09291070606992    1.13895301857671
H          -0.87944614283652   -1.42112498803967    0.58026116918259
