    26
        -50.44317120  Gyration_radius:  2.63290680971 Dipole_moment: 5.622
 S          -2.11727622456207    0.62285379754867   -0.65183541702828
O          -1.40695088737114   -0.44990871557968    0.01423128240092
O          -3.50304918284749    0.71313472705875   -0.38160890452917
O          -1.36900066845905    1.94890447720705   -0.31081803727205
O          -1.87021239799245    0.53132110899528   -2.16321764281849
H          -0.88202097569316    0.69281971799029   -2.30975448834553
H          -1.29981564231159    2.02434586395498    0.69097128407285
O           1.54729081518035    1.47301495663105    2.20894058838696
H           2.19151364940822    2.13752695504885    1.95982055134082
H           1.50152338602385    0.83941797326882    1.45545166418517
O          -0.89862992903296   -3.11235483568481   -0.32498224992542
H          -1.12636568934066   -2.17098515067345   -0.23920947327007
H          -1.57292887831788   -3.58814317584129    0.16228873613043
O          -1.03421276068382    2.10767716263654    2.21787094929042
H          -1.12772745445213    2.97990286146800    2.60633631062830
H          -0.08891211215163    1.83919353593291    2.33057501165744
O           0.61964402263410    1.11445155687207   -2.26108393112076
H           0.96888538735468    0.66994822553179   -1.44443065111659
H           0.55831267423819    2.04933552908038   -2.05054699395149
O           1.19943387456707   -0.03065944307207    0.03793064519694
H           1.60370903805709   -0.93788277042368   -0.08034709903125
H           0.24218613409114   -0.21225288373333    0.15140219009694
N           1.96818743443964   -2.54133914362815   -0.35232763329319
H           2.39045162706327   -2.73919463751079   -1.25060026062537
H           1.01947606811336   -2.91509421266011   -0.37047852311263
H           2.48648869206071   -3.04603350040181    0.35542209203783
