    26
        -50.44317117  Gyration_radius:  2.63271538836 Dipole_moment: 5.627
 S           1.22765068467310    1.94634432347112   -0.00949694761863
O           0.27720673612219    1.20313103383364   -0.81157939884858
O           1.32199414904095    3.33154938964341   -0.28122604803993
O           0.88167378950695    1.66771555592870    1.48627256998316
O           2.60713442327576    1.28345373749232   -0.11596505906517
H           2.52394795148402    0.36358143406034    0.29760477421842
H          -0.08852804017689    1.89379204014329    1.63371404890425
O           2.15927360680312   -0.91741702291305    1.11056598225250
H           2.09038039511271   -0.57433572203361    2.00479681751036
H           1.23216818317509   -1.12924610965104    0.82402199611986
O          -1.61063337652703    2.08212525952347    1.87053215687207
H          -1.85139574808331    2.48930345316927    2.70521735511477
H          -1.98667260593730    1.16723787815587    1.87419852533576
O          -2.32061872575564   -0.47809486000008    1.95727067447775
H          -2.15727425411059   -0.98165200819471    2.75627994678138
H          -1.66468140881659   -0.79576574787966    1.29386394038563
O           0.14321393585034   -0.01603855587147   -3.25200706580161
H           0.23543900535157    0.45037976224983   -2.40388496598959
H          -0.22091558066641    0.62600224824234   -3.86327580344317
O          -0.33705124523076   -1.11299851837458    0.29665120249891
H          -0.23238810196003   -0.23600887221583   -0.13007787373824
H          -0.43663756294360   -1.74429672771907   -0.47287170094832
N          -0.46541178766912   -2.55130668603292   -1.93059877479297
H          -0.26088024944091   -1.76504543268640   -2.54708844476124
H          -1.33624890388510   -2.96644890661842   -2.23642149579342
H           0.26925473078846   -3.23596095560344   -2.05649641154916
