    26
        -50.45019012  Gyration_radius:  2.49737941355 Dipole_moment: 5.273
 S          -0.30084543488572    0.81576860888318   -2.25478018892338
O          -1.52266179484423    0.14776761356458   -1.86566265848704
O          -0.09312350480248    1.03707954430258   -3.63570791058670
O          -0.17973609989562    2.15626423610178   -1.50337212194352
O           0.87911411225480   -0.00101615765958   -1.63590799938292
H           0.52001501133743   -0.94164609184673   -1.48158925851107
H          -0.39208908482815    2.04341734673210   -0.52814437174157
O           0.83129990744578    0.17776237418448    2.09646963173003
H           0.33002406588159   -0.63982957574874    1.94282385045948
H           1.65925336704102    0.09685783784723    1.56166675702759
O          -2.59848675716829    0.02599849790259    0.58905366248140
H          -2.20916650929868    0.83929047917724    0.93961768369785
H          -2.39981834241594    0.05585962146704   -0.36599137374760
O          -0.93964021425904   -1.83351928614112    1.36725139737783
H          -1.63258842385003   -1.15154167209571    1.12965118379441
H          -1.37479315690179   -2.48083507104796    1.92328003486882
O          -0.66689103913887    1.95769025615624    1.02073233083935
H          -0.46258461738035    2.80382878379984    1.42214441873964
H          -0.05342870813905    1.27795561232245    1.46261880780735
O          -0.32038570811307   -2.18982040024686   -1.22980945342503
H          -0.46526548330780   -2.20224086291223   -0.25823506249273
H          -1.11342470629963   -1.78406592433274   -1.60815749811434
N           2.95970129010405   -0.03267114270626    0.44424643519104
H           3.66658513665459    0.69136172524412    0.46560323244259
H           2.44544040518748    0.05742131777800   -0.42759743766518
H           3.43349628972106   -0.92713765073814    0.42979592870623
