    26
        -50.47303244  Gyration_radius:  2.46945175346 Dipole_moment: 4.569
 S          -0.39100648110292   -0.98862107295164   -0.58465629833444
O          -0.52084478311442   -1.01450829072902    0.86660133942667
O          -1.20361653479829    0.06053627485026   -1.18240151252749
O           1.02055296643265   -0.81532247524544   -0.96756198700741
O          -0.88446575664132   -2.33542247017326   -1.14512809023596
H          -0.57798171655598   -3.01369806103813   -0.47435651224292
H           1.41383265783861    0.68924608071840   -0.81590237005191
O          -0.59104063862724    2.53727019500198   -2.03619258525584
H          -1.22974996122249    2.97406848571227   -1.46195930459080
H          -0.87010481788139    1.60139601866505   -2.04101374109241
O          -2.19707800249614    1.96756090013591    0.36216725563859
H          -1.91296667064404    1.20276321336575   -0.18897364246486
H          -3.04405717927050    1.72256441309410    0.73681439183649
O           0.10569948957692    1.40915901317621    1.69048697712978
H          -0.09378508298276    0.45709451331990    1.53688990885931
H          -0.73152094989715    1.85157461406841    1.45726178554691
O           2.12317956258241   -2.21831397572226    0.98954207102788
H           1.84172322862087   -1.72573819904869    0.19134559415402
H           1.86683281764072   -1.66827657660562    1.73406692378610
O          -0.04831109078497   -3.76555024059822    0.82315596812721
H          -0.55408087041617   -3.26131615697217    1.46885500108254
H           0.87109929785610   -3.41786305150327    0.89335265382075
N           1.43878627699440    1.71405188107076   -0.53766065592012
H           1.02280110247744    1.72927145137075    0.44850917946801
H           0.76903851454958    2.21208013318355   -1.18422214275893
H           2.37706461187702    2.09599335285010   -0.57902019740625
