    26
        -50.45772693  Gyration_radius:  2.45608233922 Dipole_moment: 3.387
 S          -1.36839206661652    0.82808692699644   -0.77912550834227
O          -0.67770099616979   -0.35254910638164   -1.23902099842023
O          -2.63057399736799    0.54100102256044   -0.15866726848212
O          -0.45959186799571    1.60236799902471    0.19650884362086
O          -1.53599237386227    1.82753940083779   -1.91098425573809
H          -0.58994187204222    2.21251610895206   -2.07555193612825
H          -0.25797824732906    1.07054511820308    1.07004477786310
O          -2.20786007282238   -1.29111169454683    1.69213359593115
H          -2.45608230063231   -0.66392153313604    0.97489498768484
H          -2.98412583230731   -1.37865468880861    2.24869320545832
O          -0.22634573387295   -2.59721224966420    0.17427019457505
H          -0.95181352058437   -2.48129268800880    0.80262603247411
H          -0.40177277876640   -1.93362916191060   -0.51619324013594
O           0.00505683934645    0.20038777550215    2.21797628216254
H          -0.76197387383763   -0.40490566616828    2.21066103386615
H           0.78292456206327   -0.33082786888862    1.92472513952743
O           0.82492224734201    2.70012691023125   -2.04704811301950
H           1.37637945521549    1.87453009036055   -1.85912017148561
H           0.85198393689705    3.21590748807535   -1.23675768423972
O           1.88963909124786   -1.39434745185853    1.20821540798435
H           2.35839984919145   -1.99852504277228    1.78583378390567
H           1.18609725242684   -1.92964819624484    0.75828335905709
N           2.02822013036076    0.44136352123608   -1.42263409215376
H           2.66516505227607   -0.00200631103478   -2.07238270502119
H           1.14317234722113   -0.06245962544025   -1.45877726467632
H           2.39818479059768    0.30671890288928   -0.48860341628235
