    26
        -50.45450918  Gyration_radius:  2.45161194614 Dipole_moment: 5.289
 S          -1.50436344912571    0.41563435025256   -1.38660576068747
O          -0.52980372957172    1.11336312621833   -0.56763980685040
O          -1.57692935948690    0.82843752013011   -2.74130275864632
O          -1.20323385704042   -1.09241843305533   -1.36038470836463
O          -2.87594538585245    0.54371752633510   -0.68889703716637
H          -2.73114243968154    0.90310164911676    0.23915010084101
H          -0.81746130154483   -1.44030877265281   -0.47275502035506
O           1.45863585860389    1.05736234533086    1.25688908081167
H           2.01653672012886    0.35172696425125    0.89655045639295
H           0.82004431497096    1.24554089635143    0.54692736568446
O          -2.21145876778314    1.54884356346887    1.58723122263885
H          -1.69049111450752    0.89014831037483    2.08939146097394
H          -1.56000151208936    2.13196444610033    1.18376621682952
O          -0.09517957084781   -1.92240043066557    0.75114733949700
H          -0.29935340236615   -1.35630308949548    1.51778656849666
H           0.83300583904761   -1.72910921401539    0.50304520937079
O          -0.35838923733127   -0.07020941794452    2.74413371398794
H           0.39265119457886    0.41130072775980    2.29219398039972
H          -0.14870960383007   -0.10914266732418    3.67793626483022
O           2.34024563768276   -1.15099597847001   -0.17369366402681
H           3.01642998737799   -1.79634791978143   -0.38366685346209
H           2.02145862229581   -0.77391052427195   -1.04426325082213
N           1.34929399447411   -0.12025966294830   -2.42520276666404
H           1.88329345315396    0.27694237084792   -3.18932304854262
H           0.78145703910022    0.62234685703564   -2.02926588808372
H           0.68941004957967   -0.77902454296351   -2.82314839710470
