    26
        -50.44523584  Gyration_radius:  2.53452763773 Dipole_moment: 6.592
 S          -1.88569930782388    0.58390857661822   -1.36806221073460
O          -1.57737047306508    0.53457322002798    0.05520132080253
O          -3.02350716646084    1.35794606639366   -1.70548222123982
O          -0.63075195929136    1.03433739644213   -2.11555954004377
O          -2.08163122106812   -0.87173600656610   -1.85230738807652
H          -1.24488068754632   -1.34520956488768   -1.61463243485247
H           0.07613053127627    1.54297112950419   -1.51608399656120
O           0.87032030840824   -2.20442637344939    1.36325363539338
H           0.76818201773582   -3.00516442470736    1.88000304785741
H           0.30278807990973   -1.52233540233593    1.80763401555329
O           0.08105317619343   -2.19631997246555   -1.20198786033510
H           0.34195952177012   -2.17893130304500   -0.25030281350091
H          -0.09333712998151   -3.11280662243383   -1.42486630471690
O          -0.54854521285648    2.49563801182233    1.49490125123855
H          -1.05284132363865    1.81586762203797    0.99885352993153
H          -1.08165155577829    3.29180076486453    1.47851154860284
O           1.07184513467690    2.12781567009735   -0.66291992992307
H           0.64016932601157    2.34259727605370    0.18731552116063
H           1.64172527518068    1.32539258263993   -0.50095693374176
O          -0.73536670615595   -0.40928608404153    2.41466506043364
H          -0.36080079434449    0.43003586281816    2.69932664839078
H          -1.21177512773564   -0.19833849666974    1.59176587086476
N           2.35037965859230   -0.19873380160768   -0.41603490510856
H           2.13477984041190   -0.73490219914324    0.41705936406484
H           3.35048736334297   -0.23852046617199   -0.56515132295003
H           1.89833844232314   -0.66617346180226   -1.19414294251906
