    26
        -50.46094547  Gyration_radius:  2.42396240154 Dipole_moment: 4.704
 S           0.08483247528334    0.55302457167793    1.41720400321347
O           0.78756168868414   -0.27257932240725    0.42365164475960
O           1.01895186983043    1.50261247489177    1.99574792861483
O          -1.08475854469488    1.17845690580877    0.81835569705848
O          -0.40151301851968   -0.40887891539900    2.54122311905689
H          -1.25458511942046   -0.79517080802483    2.18765764361351
H          -0.56937083418881    1.88372087809710   -0.61575035526186
O          -2.49755725405186   -1.06335905785258    1.17744498263406
H          -2.12290133903500   -1.50954124471828    0.39362680860005
H          -2.47313291715891   -0.11917725410983    0.95694109600838
O          -0.58033481245092    0.01306842846364   -2.98203542356016
H          -1.42261481923902    0.10406428826674   -3.43106412438401
H          -0.68873536169208   -0.71485140171841   -2.33995802392205
O           0.75803646774934   -2.90851682471368    1.18964508030354
H           0.95230527940788   -1.97967519929233    0.98551458996308
H           0.48088540872209   -2.91755617759403    2.10751648177480
O          -0.05055440599177    2.13468565141344   -1.41327136247017
H          -0.19058178462369    1.40040164283613   -2.05553429419999
H           1.30924846895844    2.07001847543987   -0.85400864751257
O          -0.88204605431844   -1.76422456258071   -0.92425988484715
H          -0.25487042062742   -1.15804076131086   -0.45946908754393
H          -0.51871809606331   -2.64092740215734   -0.75729829881594
N           2.22702216289964    1.91502866121394   -0.25431755530918
H           2.60123722733356    0.99718566518615   -0.48632706016324
H           1.85635894272558    1.84889230944378    0.75087683131550
H           2.91583481044443    2.65133900913068   -0.37211178891135
