    26
        -50.46368294  Gyration_radius:  2.41737210974 Dipole_moment: 6.682
 S          -0.86372368375001   -1.05244004335669   -0.81345131742499
O           0.51010514271058   -1.05695990252202   -0.30949626104506
O          -1.78148605587125   -1.71981077080456    0.07173656593642
O          -1.26155685081688    0.46376910533474   -0.92788892779035
O          -0.92341330936870   -1.50965004588300   -2.20343460627936
H          -0.34622552230735   -0.44696232957242   -2.90644034231030
H          -1.11996333858392    0.88927199442956   -0.01390005570030
O          -1.63238639624432   -0.87100493804588    2.53099040383453
H          -1.71563404665086   -1.25884726168629    1.62427293880930
H          -2.43586295873035   -1.10715946582260    2.99651237014770
O           1.12229442872025   -1.38397905242891    2.30593010566878
H           0.23704686544954   -1.32435311088747    2.69049567132940
H           0.97032443512637   -1.47879597155895    1.34839509516474
O           1.55762503148718    1.10918012947475   -1.22263354643438
H           1.27900159955364    0.24396736047914   -0.81336665185812
H           1.16638791451617    1.79068043141544   -0.66747250975287
O           1.85058687336831    1.11932141082606    1.80434518278030
H           2.49600177656603    1.03247283222115    1.09963275203776
H           1.70582637171519    0.20187184027977    2.14256148234887
O          -0.77091889241372    1.43486923251646    1.36412273463361
H          -1.14029364549396    0.75245214133188    1.95476938650808
H           0.19769084997690    1.42830206001058    1.54681209311033
N           0.12146713045975    0.48006829078656   -3.33807725516448
H           0.76341956334704    0.84124014020280   -2.56468053347756
H          -0.62209688335075    1.14990178274530   -3.51138900570820
H           0.63578359059157    0.27259411049716   -4.18834577935912
