    26
        -50.44838410  Gyration_radius:  2.46491822642 Dipole_moment: 5.824
 S          -1.37594239402337   -1.53918245239480   -0.82101495539260
O          -1.77554608788042   -0.13502651257035   -0.89038846529578
O          -1.19409646509053   -2.14298202832610   -2.09385902512121
O          -0.12466253518708   -1.63280234320058    0.04845598979927
O          -2.41630993939255   -2.29605651521059    0.02041728305533
H          -2.47017824777137   -1.75435635218717    0.85773305419305
H           0.78209099315799   -1.36408878047791   -0.45715383304135
O          -2.31894180866913   -0.43741293904162    1.80550042211179
H          -1.40459683248716   -0.23191082396136    2.08453253709602
H          -2.49680611850826    0.15068294297738    1.06179135397528
O           0.05656115429065    0.87589882324081    2.31725582674556
H          -0.06719224419336    1.35034618230152    1.46513951070607
H          -0.19384510153171    1.49167963099276    3.00874404201584
O          -0.37880718067143    2.00107826455466   -0.07292401691558
H          -0.98372561567688    1.30110467827325   -0.38385978816738
H           0.24234116308485    2.13267949309965   -0.79270293952072
O           0.12149027196017    0.37378522515287   -2.76583386316846
H          -0.67311934346516    0.25733051420030   -2.21742799766426
H           0.03245586595131   -0.28300421649873   -3.46142821827108
O           1.89311781051205   -0.81762388825889   -1.12500821600998
H           1.44179865385618   -0.26897972858777   -1.79999056650681
H           2.26894620661232   -0.20811975426783   -0.42620510833498
N           2.71081347541957    0.68414636132435    0.91589224885905
H           3.52364522967242    0.26410759617348    1.34809464913968
H           1.92111604422828    0.55002437826636    1.54275936735372
H           2.87939304581539    1.67868223443221    0.83148073837661
