    26
        -50.45599945  Gyration_radius:  2.47914518972 Dipole_moment: 2.521
 S           0.41946689433118    1.10669498632617    0.88565262850073
O          -0.94421970502935    0.80547017755424    1.25858486676659
O           1.38899850294218    0.73626286997995    1.87553295218947
O           0.74141487573808    0.40804035170190   -0.44727359494585
O           0.56313641262041    2.57657507987409    0.53983350998562
H          -0.04807257150764    2.77298388324291   -0.27939577148878
H           0.76343821375270   -0.62195027511953   -0.31954986172280
O           3.05365393567025   -1.30710506390344    1.34370764946487
H           2.53251669535013   -0.53881207142608    1.64798264856932
H           3.90025180843976   -0.96126853833789    1.05774661985519
O          -2.38716825885791    0.83694952242631   -1.02422125233305
H          -2.00712631293749    0.07628611332661   -1.52643839649079
H          -2.07215412286922    0.72818450624026   -0.11152277952112
O          -0.42911910339591   -1.59605155847112    2.31523879399964
H          -0.81247124396263   -0.74000422581257    2.05284967957733
H           0.26010246519875   -1.38798460765692    2.95129284099372
O          -1.00088064662737    2.96640857710647   -1.38186602010170
H          -1.58105482837675    3.70195248473259   -1.17136807652377
H          -1.57986933672612    2.13418445866222   -1.35317783676695
O           0.83998415104058   -2.05848041902973    0.04037377426197
H           0.27577120492654   -2.09423866165479    0.85098189164244
H           1.75486604596066   -2.07017382386197    0.38763127204301
N          -1.09065675629685   -1.19875801410711   -2.28744016363303
H          -1.51014833794147   -1.72147806999550   -3.04593551913047
H          -0.73763096136554   -1.86040851558484   -1.60581161269042
H          -0.29302903017813   -0.69327916645476   -2.65340824221669
