    26
        -50.45299503  Gyration_radius:  2.58078155578 Dipole_moment: 3.034
 S          -0.00691887272750   -0.32182600096777    1.37388724856078
O           1.36419224141881   -0.22798049698682    0.93972243717008
O          -0.24556567805132    0.09265155367392    2.72389154370267
O          -0.87043198663577    0.54967759559744    0.40744176908350
O          -0.55323100636385   -1.70764144721743    1.13452429990018
H          -0.19648964442776   -2.05219174071037    0.17168137061481
H          -0.49120485060663    1.51898409108705    0.43057477106465
O           0.26131413592908    2.78726715052427    0.45148507247613
H           0.58964201332154    2.82037751638382    1.38067516000880
H           1.03479023526453    2.57101013253904   -0.10184929650669
O           0.19232780276690    0.05380180378516   -2.12857436964905
H          -0.41580266225478    0.34702843511225   -1.43596886248130
H           1.00788192236451    0.55517374151372   -1.97820924018315
O           0.12269290825687   -2.40749139593477   -1.13512908628920
H           0.30205591740680   -1.55222477699899   -1.59746784350408
H          -0.77198458204899   -2.68601690133593   -1.45910231505299
O           0.98986748255769    2.42796022735190    2.97708696017657
H           0.55952000799702    2.89798220552421    3.69419867311241
H           0.62766037260990    1.51745457698175    2.99387031712655
O           2.25209106411826    1.44241262353873   -0.85216778215710
H           3.20699814555862    1.52068700871456   -0.83804490918958
H           2.02071220785499    0.77247965548460   -0.16511158333192
N          -2.47810284316521   -2.74839762019091   -1.73676908803498
H          -2.85516861253009   -2.49494645166421   -0.83151413254085
H          -2.88421352121529   -3.63263612768304   -2.01373356412679
H          -2.76263220734781   -2.04359536625905   -2.40539755009564
