    26
        -50.45577741  Gyration_radius:  2.4404773979 Dipole_moment: 4.625
 S          -1.79450438719834    0.79483649363505   -0.56157023485839
O          -2.77732675440719    0.03425226359100    0.15802568001861
O          -2.21963470018213    1.89599296361061   -1.35611968184772
O          -0.75644213826054    1.27936707056801    0.48734512296447
O          -0.98241978016873   -0.14436403730061   -1.47889632294357
H          -0.67296711784361   -1.00858024336219   -1.00470566122034
H          -0.19188927217906    1.97150280469225   -0.05303004993809
O           2.13052090849907   -0.98098228594772    0.64958766478831
H           1.61255712460033   -0.58599123994918    1.39794765206267
H           2.86801857594548   -1.44390047725774    1.04976109943255
O           0.49515306768433   -0.09517580543684    2.52890693204871
H           0.12002992288929    0.65595392347233    2.04896337083531
H          -0.22751954453505   -0.74106212458140    2.56321651493608
O          -0.11751189286933   -2.16622721075047   -0.24556279884973
H          -0.65949732172965   -2.17097470828643    0.56705896327162
H           0.77048209660193   -1.84097390613203    0.01755607487606
O          -1.72476847399124   -1.63484938547586    1.87238817460427
H          -2.17428822496397   -0.97189746797823    1.29243206085184
H          -2.42355354099222   -2.16995514712015    2.25250231058328
O           0.41816285490862    2.76189345453754   -1.11393302996205
H          -0.37808996920590    2.80434098886179   -1.66024568771626
H           1.02787822925665    2.06729291238859   -1.50971746436301
N           1.82979468229516    0.67622785084985   -1.92721450096063
H           2.63549907327451    0.68993124069468   -2.53907905158655
H           1.10045211552962    0.12540845629060   -2.36572366061243
H           2.09186446705301    0.19793361641547   -1.06989344640581
