    26
        -50.46167346  Gyration_radius:  2.39934494962 Dipole_moment: 4.200
 S          -1.73787931416813    0.40862316116789   -0.48184433033598
O          -1.71386609973818   -0.43469214607692    0.71593945216241
O          -2.15964454583818    1.75559758686611   -0.21205349227065
O          -0.21196167140722    0.48428167069538   -0.95916311291064
O          -2.39181514621605   -0.25856992122433   -1.59597846451634
H          -1.38915948933741   -1.25430139980363   -2.05844333579994
H           0.17099692710565    1.18587645865802   -0.39123307297395
O           0.19227154305924    2.50010570540481    0.72920249900543
H           0.17322870812506    2.01571935736833    1.57358166959078
H          -0.74372165535048    2.57100684314533    0.45573318600038
O          -0.13837875380900    0.52186838027470    2.55618442050544
H          -0.79325002453956    0.14548419873384    1.91501809942980
H          -0.50321162056872    0.37566636568825    3.42987627467021
O           0.00490847124368   -2.36277953489683    0.20998576894120
H          -0.72401071919527   -1.78147728755620    0.52357748038550
H           0.82454087442999   -1.88704347721507    0.49611906818344
O           2.59959610886233    1.56647330659481   -0.29171751938645
H           2.48442355132410    1.68178024286807   -1.23583670831146
H           1.95906968332519    2.15270061530761    0.13758281643435
O           1.91141389640425   -0.75300981291735    1.10271142248106
H           1.36409279034317   -0.31417925242834    1.77157937867993
H           2.28361528567837   -0.03765148572373    0.56129459333408
N          -0.56010011471341   -1.92862912206117   -2.24051855437414
H          -0.22442487199928   -2.20297501395300   -1.21708331428075
H           0.17395071168899   -1.41227061087538   -2.71475816552650
H          -0.85068451472790   -2.73760483800763   -2.77975605911730
