    26
        -50.46019296  Gyration_radius:  2.4273405847 Dipole_moment: 4.379
 S          -1.17788062152156   -0.50876150673065   -1.24874064852811
O          -1.10579019241288    0.57770748232792   -0.27180973834147
O          -1.38549831754914   -0.01056254638269   -2.59507494832348
O           0.05670727629997   -1.31744020611703   -1.19102722575094
O          -2.36036778570803   -1.42106134023658   -0.85755112410507
H          -2.23745730963320   -1.61117564483054    0.12073570408074
H           1.08543326199461   -0.51081624353541   -2.18612776267723
O           1.78823323994766    0.97210871098635    1.79046250070195
H           2.31952962490595    1.11333804528336    2.57492234980995
H           0.85157761652369    1.15923274799030    2.04751479267989
O          -0.79664375552732    1.33367091861179    2.24652680873962
H          -1.03914507745480    0.92282417441172    1.39028690737439
H          -1.22373680317296    2.19173941353360    2.24906547194918
O          -1.83283743590987   -1.91089000137287    1.62322783190772
H          -1.95955318387914   -2.84082399215325    1.82266701074111
H          -0.85182305410005   -1.75580533924288    1.66075894090644
O           1.09040659594999    1.97724525630754   -0.69457215686892
H           1.59671654872626    1.70190695358680    0.08752657942454
H           0.19087018334709    1.60929256976927   -0.52866588245633
O           0.77050626562194   -1.63497319438975    1.33667469314703
H           0.60308875659649   -1.60495082143234    0.37255873739213
H           1.19416686295242   -0.78858013195674    1.54625656034784
N           1.15283719831758    0.38355328596916   -2.74193823364032
H           1.31984924511524    1.15259378690640   -2.01228753787814
H           0.13795674152719    0.45133077804820   -3.02987621938556
H           1.81285412904517    0.36929683465255   -3.51151343125793
