    26
        -50.44853426  Gyration_radius:  2.42947785699 Dipole_moment: 5.424
 S          -0.21784234056479    1.32145671014261   -1.32279921099214
O          -0.88325495620493    1.07932148600839   -0.03930214390206
O          -0.07192450130933    2.68929833810748   -1.65397714919880
O           1.16041018485033    0.60393386554638   -1.23681772689085
O          -0.93795099089769    0.54456662108936   -2.39523917217126
H          -1.09775088666257   -0.48181459373327   -2.09374280390759
H           1.74470157609470    1.14440082198521   -0.62069984024308
O           0.45519318800187    2.12148646715682    2.13466685446960
H          -0.20039408963010    2.11809546632091    1.42091151620365
H           0.42797206212625    1.22907159081603    2.50592986246580
O           0.08067065588795   -0.70657062371700    1.74899695931298
H          -0.19460729029770   -0.09907578085704    1.03618342243342
H          -0.72583712989570   -1.15636139115553    2.01391717551228
O          -2.73344030448171   -0.77592485652102    0.48903908337920
H          -3.63685717995931   -0.51509270078012    0.30467244414916
H          -2.17811030018173    0.01499070056202    0.33915281043198
O           2.52640919411609    1.87826179986421    0.51160846965900
H           3.15692240085040    1.32717913437070    0.98106550236966
H           1.82876407844894    2.13068252118793    1.16842632426861
O          -1.31204537187265   -1.76381525396597   -1.59459582150622
H          -1.89961067711024   -1.62159858764570   -0.82444467241418
H          -0.42412948032813   -2.05979572036895   -1.22413735457195
N           1.04386915513032   -2.28399251439175   -0.52828093430616
H           1.61229079758481   -1.60911468692517   -1.02620353251902
H           1.52249453349407   -3.17461128977328   -0.52481914079273
H           0.95405766331231   -1.95497754300908    0.43048910710600
