    26
        -50.44881365  Gyration_radius:  2.43068308395 Dipole_moment: 6.433
 S          -1.40591077794871    0.19798445236681   -1.61064759921860
O          -0.23887672430399   -0.68038445513542   -1.64709374220856
O          -2.32978767277902    0.00992612759504   -2.66502050071894
O          -2.06469314039188   -0.01231429566332   -0.21445109024011
O          -0.93799309715532    1.64034583789287   -1.55958842298562
H          -0.32436827155917    1.81766889139552   -0.69398576911337
H          -1.83182876474226   -0.95275921047569    0.06371776238727
O           1.74791014095145    0.96339448270748   -2.72909101025492
H           1.01980937017940    0.33114640186801   -2.66326684544068
H           1.33825122625818    1.82362675769878   -2.84007329079460
O           0.50414806774576    1.93220595949818    0.43220889222124
H           1.19002226539819    1.24793139582313    0.28754959114523
H          -0.02701076744895    1.61263020479121    1.22184256364568
O           0.95508544299338   -1.62295632992487    1.94297164024245
H           1.55010085096401   -2.29477048685471    2.28023674130188
H           1.45268327513407   -1.11880158414151    1.27437447192767
O           1.94391440538958   -0.26521813282928   -0.20749364619598
H           2.57124751491298    0.05809403666541   -0.86522849944328
H           1.15517809410903   -0.51023846182595   -0.74183792861523
O          -1.11792932800126   -2.32263320438921    0.30934852412466
H          -0.66502970761717   -2.27268446147014   -0.54367428021052
H          -0.43326191087571   -2.15580257586490    0.99002065396037
N          -0.86191688481060    0.80438832214208    2.39553543612562
H          -0.38286268879825   -0.06983194332214    2.58268822384384
H          -1.73204433885894    0.59021114151805    1.92249144280655
H          -1.07483657873992    1.24884114994268    3.27846666189377
