    26
        -50.44480450  Gyration_radius:  2.67131177472 Dipole_moment: 6.781
 S          -2.33728211096475    0.83124114880667   -0.94534610775867
O          -2.40715199118707   -0.40532356579178   -0.20068465403196
O          -3.56644776483450    1.44470113292177   -1.28905351812807
O          -1.44691093732904    1.82968850228895   -0.13669993210520
O          -1.45193957853822    0.61354844758265   -2.18644267792139
H          -0.96896930072736   -0.27758079611468   -2.03275044495222
H          -1.65301986625170    1.78214500514441    0.86364932742891
O          -0.37449294123212   -1.58652844505386   -1.56681752459027
H           0.31185972334446   -1.31394094957337   -0.90254570345888
H          -1.14234266308431   -1.85933434319975   -1.05051221762843
O          -1.91431113547882    1.51279232561053    2.33098237076075
H          -1.44359441468230    0.63490761481200    2.39651835831401
H          -2.84664701805353    1.33103832471720    2.46815978207021
O          -0.85118243146837   -0.83789723086470    1.96239453784880
H           0.01707427178858   -0.75908397330800    1.53131011487644
H          -1.48947488113737   -0.89731781980163    1.22962865794410
O           1.10066053823723    1.72643445496054   -1.15737226698558
H           0.90041249874826    1.53825045395011   -2.07795732112316
H           0.25846154561907    2.00280349699364   -0.76286905308336
O           1.27489643279863   -0.58097017203010    0.22450233008967
H           1.33738941409847    0.30795812346396   -0.18380465124646
H           2.19607565989624   -0.92104681608703    0.28161487302868
N           3.86575693971511   -1.45001507162062    0.29707086593580
H           4.03448536176221   -2.16429072281223   -0.40023722137942
H           4.11255033856258   -1.83065850517066    1.20214428863684
H           4.48414431168887   -0.67152061997916    0.10511778701163
