    26
        -50.46930072  Gyration_radius:  2.43454194037 Dipole_moment: 3.381
 S           0.93208287701770   -0.64657265529314   -0.54596790463279
O           1.65088555858598   -0.81804951188811   -1.89809409591716
O          -0.36812376112907   -1.31159443277097   -0.62319156166977
O           1.76759937309959   -1.20764494422912    0.49347562036903
O           0.73745295476081    0.79989290265717   -0.32470596283380
O          -2.43640371252273    0.26738416886237   -0.12101287218733
H          -3.23364689962387   -0.24817886102585   -0.25071917763736
H          -1.69451708621152   -0.33626858963223   -0.34443046834729
O           2.26858546991103    0.26619248258059    2.63247174836353
H           2.99500603121777    0.85216542387961    2.41497047684396
H           2.18439338259544   -0.34569142795439    1.86316169387417
O          -0.62115623178391   -1.95459467255656    1.89912610915643
H          -0.62604915634248   -1.90805929178096    0.91635568510756
H           0.25725180161944   -2.28085712315997    2.11604446312398
O          -1.08811329735890    1.82076701649061   -1.96673631640462
H          -0.32700254021446    1.65039353376119   -1.37799920546102
H          -1.83893900418090    1.46297002516729   -1.46619392066831
O          -0.07728566756345    0.04249714524248   -3.61393630184461
H          -0.56796535476685    0.72241612707646   -3.07697400607738
H           0.37250387129814    0.52606545046566   -4.31011684007920
H           0.98063388189553   -0.55558138792664   -2.59640294408581
N          -0.28218364550987    0.66638096339374    2.06123323673274
H          -1.00641842944992    1.30372104993799    2.37432243286998
H           0.61663694268390    0.73255702417300    2.58879346239321
H          -0.59167359683683   -0.34840339925800    2.10710637955359
H          -0.00355376113369    0.84809297380310    1.04942030937911
