    26
        -50.44355484  Gyration_radius:  2.64391967636 Dipole_moment: 8.721
 S          -1.83968944373858   -1.83449784159279    1.47327670661162
O          -1.31678029247759   -2.03314879351209    0.13866659846536
O          -2.83118182284494   -2.73978011054585    1.91472237893444
O          -0.63249299705941   -1.76255281075063    2.44519849904489
O          -2.40868587335756   -0.39047348143904    1.56353370434323
H          -1.65333242895822    0.23695690586992    1.42676079215464
H           0.17972821078266   -2.12010469176257    1.96082326716276
O          -0.16720063179993   -0.58842245808616   -1.81159731809190
H           0.65751778472003   -0.50627655489344   -1.29554256030897
H          -0.72948598561619   -1.17422742327619   -1.27470605219554
O          -1.06791865319448    1.80716619265826   -1.37050393537103
H          -2.00810786675582    1.82217645849427   -1.55610122061766
H          -0.74570977437413    0.90261950159313   -1.66423935054893
O           1.21983077931392   -2.57299079274158    0.88738000930235
H           1.66316575541441   -1.75150202529988    0.61107862457802
H           0.51842922175631   -2.72830441244442    0.23807199437436
O          -0.48712273518602    1.33107622759326    1.13621068824264
H          -0.61692972692882    2.10059229230460    1.69293448969412
H          -0.70436326500933    1.60232759203847    0.19978381964859
O           1.74399500843504   -0.01332641436448    0.08011646272423
H           2.07000820440897    0.73907761398972   -0.46511600509576
H           1.09581525376087    0.38042326807050    0.68129316666332
N           2.05232760814646    2.13040737033018   -1.56161640537962
H           2.37306792792659    1.81708126897708   -2.46956419929177
H           2.56347792988758    2.97162175743463   -1.32564598481825
H           1.07163780275154    2.37408137136527   -1.65521816024647
