    26
        -50.45966440  Gyration_radius:  2.40948849614 Dipole_moment: 7.805
 S          -0.14224250968737    0.56754066590346   -2.16567640482920
O          -0.99401024818666   -0.08396569927431   -1.14632388392345
O          -0.86476032062114    1.45832034924148   -3.00920529430031
O           0.93308593479111    1.38183684134642   -1.32817946805880
O           0.68875473218437   -0.44191977509180   -2.82184117975168
H           1.40738564830415   -0.87163608636984   -1.64232200254856
H           0.48758765743366    1.97861766436654   -0.68683818836305
O           1.44547584578665    0.39324598217961    1.40701061676924
H           1.18468156645074    1.30070751887731    1.20807501122609
H           0.66599559826869   -0.02529827954612    1.81455290092510
O          -2.09632210777616    1.08689254199634    0.94218583015645
H          -1.83289811840357    0.43357080507436    1.60409898304526
H          -1.86781928205694    0.67405277632653    0.08061051329393
O          -0.62385740663333   -2.37165403941174   -0.09614901166728
H          -0.79759692845080   -1.49315060362126   -0.55946317572581
H          -1.26010893440478   -2.98439148852654   -0.46677563568238
O          -0.11443600775836    2.74919973062414    0.67089878810423
H          -0.42343498459173    3.62436461729529    0.43334966648082
H          -0.93146282814627    2.20125178956699    0.85168444195627
O          -0.76485905815989   -1.04260345907537    2.25675153613422
H          -0.77970988620542   -1.62652158126473    3.01584339184535
H          -0.77510039527971   -1.60664934214179    1.45435758095547
N           1.80010219327811   -1.24561493141425   -0.68363160597123
H           1.73644340265146   -0.48203605570719    0.04741265558270
H           2.75564031758270   -1.57169267446199   -0.78202286587744
H           1.16346611962783   -2.00246727688965   -0.39840321977416
