    26
        -50.45793235  Gyration_radius:  2.46108899436 Dipole_moment: 5.062
 S           0.54443936538452    0.00752590903814    0.85339886087298
O           0.23590829125125    0.84686690866822   -0.32908942803521
O           2.08874227639065   -0.26183624477788    0.75481753494764
O           0.25663069300232    0.70928592868619    2.07727577300525
O          -0.07946835601752   -1.29493646189294    0.73245254799553
O          -2.30932383603772   -0.96595816241991   -2.23519837171918
H          -2.48238190907297   -0.35145116276343   -1.45622087202824
H          -2.83105791538820   -0.62530468045688   -2.96442832153482
O           1.35752619133976   -2.41339200855394   -1.10655898942379
H           0.78146296545512   -2.19917577085585   -0.33153063257276
H           2.23948890306092   -2.14167105187094   -0.83786829354724
O          -2.27254509351534   -0.31556343451420    2.11138538536569
H          -1.91603585388250   -1.15744689245008    1.80631023225952
H          -1.48504696384534    0.19298555275191    2.36284033031459
O          -2.48557241091202    0.77873937104932   -0.33425931363951
H          -2.65456546407928    0.41307094064227    0.56076959411105
H          -1.54832619768964    1.03460674650882   -0.31941863091815
O           0.17064748157358   -0.56163180165931   -2.36884514343831
H           0.66930328907761   -1.39275867936540   -2.01789426668118
H          -0.85156959291826   -0.80108412937294   -2.39365496975991
H           0.23566728160924    0.11168816059995   -1.55438250933505
N           2.55089738041430    2.20606649941113    1.41319257631593
H           2.38349055293386    2.84795191260217    0.64921836649644
H           2.49085100398308    0.63120485521358    0.97372653327787
H           3.23505417656365    2.61705923278975    2.03533983226220
H           1.67578373133531    2.08515848307414    1.91862217538737
