    26
        -50.46585428  Gyration_radius:  2.38173404828 Dipole_moment: 6.669
 S          -0.64774755184287   -0.02684166599755   -1.46502003459754
O          -0.95851837099289    0.34209247473182   -0.06473236171346
O          -1.38295781606177    0.77328798461387   -2.40238968317947
O           0.90141670467168    0.30813344356549   -1.61562897720560
O          -0.72423885797308   -1.45653371101049   -1.64301997475754
H          -0.22399332898806   -2.63467964440869   -0.57480576625608
H           1.00852043240868    1.25218405196566   -1.26731794219060
O          -1.63872997114296   -1.55543538622595    1.63659776797883
H          -2.54783681640939   -1.82620651792382    1.50199412669666
H          -1.46772532605953   -0.84491578548108    0.97625809249893
O          -1.48514159726381    2.95814079373908   -0.96799451329512
H          -1.97599182475027    2.61763052021934   -0.21640701682646
H          -1.52267335244118    2.23579479931702   -1.63643515834078
O           0.76523197217088    0.67760659962633    1.83079468401434
H           0.31721231351064    0.41110886488509    2.63635847570538
H           0.07196267363544    0.62523059210160    1.11954203595422
O           1.06934719010316    2.57729030324691   -0.47238955450268
H           1.10751815406761    2.35959620126953    0.46538943536029
H           0.15003068242046    2.90587162265856   -0.65081952116055
O           0.13839108122994   -3.01808172198306    0.26093298301123
H           1.27445301828238   -2.06787361787558    0.37582168729564
H          -0.50133870091983   -2.71595454276821    0.93963654827848
N           1.94699706113883   -1.19882991444027    0.33229265164973
H           2.92615668685026   -1.46022401917000    0.36954576287949
H           1.68644571137185   -0.52691980609971    1.09304022758795
H           1.71320984296390   -0.71147189853659   -0.56124395486879
