    26
        -50.45793238  Gyration_radius:  2.46108357062 Dipole_moment: 5.061
 S           0.70756314283184   -0.71401951380680    0.11979068658341
O          -0.01969595175278    0.33219483898919    0.87773843269440
O           2.13237563937980   -0.53508339997113    0.22487913905881
O           0.29646438548807   -2.06219288577933    0.81305020263343
O           0.20017221317220   -0.80994968608519   -1.23431162214742
O           0.33841252758977    2.49967454023638   -0.72998889460218
H           1.04686706659730    2.16547182337228   -1.32138344570943
H           0.31368259599701    1.86312531634708    0.00371388562021
O           2.14268271197808    0.99457120491136   -2.03521292818184
H           1.49859034691561    0.39245048664530   -2.42440438461185
H           2.45001417158399    0.52589346603234   -1.24279795708999
O          -2.10788071343167   -1.92193274136112   -0.86862323053020
H          -1.88616466520171   -2.58883172838385   -0.21291956045116
H          -1.23523189192548   -1.60328828850659   -1.20823587693349
O          -2.08005222978322    2.11910546587717   -1.56359647974038
H          -2.54728569043718    2.94525370526861   -1.42499585180756
H          -1.11206794491330    2.30723410371199   -1.35873064839125
O          -2.40569959414672    0.35712177143062    0.20303571111461
H          -2.46484424586099   -0.56810333464321   -0.24755465830125
H          -1.41723371856045    0.37014226634184    0.58207096527131
H          -2.37185373388351    1.07368278307447   -0.56398741287692
N           1.75414996239358   -1.43793826210783    2.86807025762641
H           2.38002011065667   -1.99118667582824    3.43922161816863
H           0.77276337191397   -2.01986803155913    1.69536507262289
H           1.31671413061440   -0.73863148978881    3.45396851493204
H           2.29753800279313   -0.95489573440573    2.15583845503411
