    26
        -50.44822892  Gyration_radius:  2.55876732444 Dipole_moment: 4.206
 S          -1.30343390674039    1.33301489682511   -0.25804402249091
O          -0.92763696908142    0.87059603804803    1.05229678903304
O          -1.18955748824656    2.74796308953073   -0.43978469337173
O          -0.39530364210611    0.60196169548498   -1.30766177235024
O          -2.68322702701140    0.84266593524352   -0.64286054887773
H          -2.61419710912801   -0.13776327144283   -0.99608788246855
H           0.53333516865213    0.94853730738572   -1.17990715017698
O           1.90851885010551    1.68278431210292   -0.82682981413093
H           2.08181153882462    2.36473033326865   -1.48003362042960
H           1.66394494606406    2.16577993026590    0.01313114781937
O          -1.49584356327512   -3.05872350315229    0.31430875970517
H          -2.15186830037153   -3.34583881762283    0.95093311006189
H          -0.82090720782650   -2.53647256931027    0.83366233349024
O          -2.33159040005832   -1.45676161242984   -1.55269515494050
H          -2.06482939981075   -2.10575804726107   -0.83632177030606
H          -1.53637576119361   -1.29677239264268   -2.06878183481135
O           0.89407772430895    2.92507965184596    1.23227373982454
H           0.53973845138739    2.22343068736720    1.79151195300844
H           0.12535460325157    3.21861246021020    0.71189574664522
O           0.16076240262230   -1.54266420221488    1.63599082721778
H           1.02232594095805   -1.45875728197972    1.17096746733253
H          -0.26175321713694   -0.67163841150830    1.55542563797184
N           2.48771974693552   -1.13685694148781    0.22485036159610
H           2.43900660034399   -0.20094227526823   -0.16254901334137
H           2.60575499127767   -1.78612008444065   -0.54246248282721
H           3.31417303724242   -1.19008695686363    0.80677188683804
