    26
        -50.44190018  Gyration_radius:  2.52120690644 Dipole_moment: 4.410
 S          -1.06340801893008    1.81299947705844   -0.45541935616327
O          -0.77081245958725    1.46222756849161    0.91329096781190
O          -0.87685950929242    3.18711973398410   -0.77776806567182
O          -0.12867328945269    0.94809011620790   -1.38137950417262
O          -2.43929635333889    1.29387916044417   -0.83278145487307
H          -2.40989187587676    0.30476987189357   -0.52482490891087
H           0.76643800548942    1.39579457797763   -1.31922726594614
O           1.67736217311219    0.90316409350958    1.53015002815170
H           1.85971703802322    1.01674182160754    2.46465168312196
H           0.72241936216015    1.12466874428742    1.40623672568174
O          -2.10283954096644   -1.05793861422821   -0.02070006105990
H          -1.12815508752167   -1.16410358204805    0.04969654743293
H          -2.40055393080498   -1.18214305620751    0.89525786385181
O          -1.54653963056056   -2.02825304941337    2.50690334092703
H          -0.70801436792302   -1.91503868651910    2.03436204884916
H          -1.62055140480705   -2.96273110653643    2.70594099807668
O           1.91155969857478    2.36727057837204   -0.76914190673000
H           2.07966682629049    1.95223447240863    0.09786816136012
H           1.33809564898364    3.12934451642570   -0.62570480523128
O           0.51688779655840   -1.54415408607373    0.62051065731689
H           0.83455752023640   -1.73799496621087   -0.29050158193665
H           1.02362510740155   -0.77393685163291    0.91681178305791
N           1.11676019894164   -1.70252494164534   -2.02323031751018
H           0.58298087773680   -0.85269478724178   -2.17733912002611
H           0.70656658356742   -2.43567776380974   -2.58763891653344
H           2.05895864198594   -1.54111325119464   -2.35602352087166
