    26
        -50.44822931  Gyration_radius:  2.55789598154 Dipole_moment: 4.204
 S           0.99048311236591   -0.16922913117048    1.59056271854932
O          -0.15166155058303   -0.99876429527874    1.30836754460549
O           2.18709474149162   -0.89491511817285    1.88952485078470
O           1.24048287994874    0.74962532262101    0.34389408111504
O           0.68299338575768    0.84608360144472    2.67080976125372
H           0.18075641471791    1.65782588073680    2.24665624422199
H           1.54819508412288    0.15557067403264   -0.39867351835804
O           1.52427902284882   -2.91247479973037    0.25910250592618
H           1.97627071650987   -2.45004320922181    0.98691881207899
H           0.58770598193718   -2.80681914685003    0.46497775249787
O          -0.41720412911937    2.74898274593779    1.48519663064430
H          -1.33187666082478    2.50502531341862    1.15411156805280
H           0.14195908600657    2.78616210969794    0.70393829761472
O          -2.71410860554810    2.01601885471517    0.51798556371269
H          -3.42586220586682    1.91153792726013    1.15085219398682
H          -2.56153450799545    1.10992752129723    0.12564061272752
O          -2.19099721285533   -0.37835560074341   -0.36596823150462
H          -1.54211859022656   -0.69047295966208    0.28614529224677
H          -1.70804448558155   -0.34850725525539   -1.22126629390577
O           2.06208487864596   -0.97476935220855   -1.40461269197229
H           1.84782662730856   -1.80568728576253   -0.89240623950061
H           3.01998735094160   -0.94069787974731   -1.45953007690470
N          -0.65364757199157   -0.28281039673038   -2.64577307088713
H          -0.62519500821941    0.63762881405659   -3.06541058650570
H          -0.95943101132080   -0.93789387791770   -3.35410798771011
H           0.29156225750929   -0.53294844680754   -2.37693572270567
