    26
        -50.44854980  Gyration_radius:  2.63427325281 Dipole_moment: 2.516
 S          -0.22221937484225   -1.44275237216667    0.73353159217655
O          -0.20239792944690   -1.34627208290725   -0.70640342379834
O           1.01269879028034   -1.82734638483289    1.33613541291568
O          -0.67979548022795   -0.09151749836019    1.31655455680880
O          -1.30682116400527   -2.42954053955141    1.17950608188091
H          -2.20380252798221   -2.08700821127100    0.85714286931093
H          -0.85945065006471    0.62534825427014    0.61110319057947
O          -2.40911113087308   -0.25198415200552   -1.72925624073401
H          -1.56118972554626   -0.71274947866640   -1.57444387475333
H          -2.24263881688540    0.65890552822183   -1.45508694106774
O          -3.51185978544053   -1.54857841912859    0.24518078034131
H          -3.21679589007171   -1.00744334403359   -0.54027810276944
H          -4.03738796856036   -2.27137202377981   -0.10421239043639
O          -1.01539654667767    1.75424629170084   -0.39680037786187
H          -0.16265519353144    1.55812271753433   -0.96520555546999
H          -0.85061517340740    2.57188305150917    0.07590210185881
O           2.81657626898528   -0.03839151521924    2.16025053036823
H           2.10686327039863   -0.65963020868592    1.90362106479258
H           3.56851462942821   -0.59004498090134    2.38531589504249
O           3.21753429256749    1.73432669208472    0.16337604358354
H           3.39318073569084    2.56311532137935    0.61095211138801
H           3.08322042433191    1.07184814203452    0.87416072281454
N           1.10198613051651    1.07225453206088   -1.66007905056223
H           0.97992298074181    0.06696585096958   -1.57418551389759
H           1.92466020983954    1.33456003546999   -1.11547193584031
H           1.27697961481024    1.29305481427868   -2.63130956671142
