    26
        -50.47097694  Gyration_radius:  2.50074716443 Dipole_moment: 4.582
 S           0.66106274835906    0.54812393148894   -0.95460218220051
O          -0.59311767265377   -0.00278552834055   -0.41657440026732
O           1.64182479641822   -0.51007442375298   -1.13626522859413
O           0.34076617532289    1.17166440163338   -2.33650342783779
O           1.13059938474467    1.61890442186019   -0.08723941343929
O          -1.44000348010079   -2.00207005302828   -1.89489366118213
H          -2.34453619061857   -1.81032156574260   -2.14841679928611
H          -1.16596482392292   -1.27589901145423   -1.29018526481076
O           1.03775993473301   -1.97388681127228    0.94693883072084
H           0.15235120047852   -2.26335798001403    0.71104448878773
H           1.38869691302109   -1.55290874989542    0.12709336425082
O          -1.23307840716414    1.19316902102434    3.12846081776592
H          -1.95542787659321    0.57361878012652    3.24346343437767
H          -1.43192246870290    1.68783513811608    2.28965784798724
O          -1.52638469675211    2.19865784267701    0.71415064720688
H          -0.78539095602260    2.77084679148310    0.49346988416475
H          -1.32369806150638    1.36111362132347    0.24740056056343
O           0.52043068053650   -1.10331124618684   -3.52948247395175
H           1.26438457496905   -1.24923379591478   -2.92781428989281
H          -0.22677318463889   -1.59164281893892   -3.12533807406922
H           0.35813699206034    0.39867031186135   -2.97447029994557
N           1.11857321436777    0.36065419234445    2.21050653627343
H           1.20724097512543    0.96204904890549    1.33878470792662
H           1.07291254972670   -0.63711133294931    1.85768016027907
H           1.91610598210836    0.49639627548181    2.82315571136445
H           0.21545169517855    0.63089955843862    2.68997851339135
