    26
        -50.46862034  Gyration_radius:  2.5073077038 Dipole_moment: 3.950
 S           0.99062638561585   -0.23683088874989   -0.47102584590159
O          -0.31706094701533    0.35721827324187   -0.82198269326966
O           1.96643438256842    0.79864822083719   -0.20929873876728
O           0.83661816531258   -1.14367646595597    0.66273858385019
O           1.46818160451470   -1.04360318100561   -1.69412429941797
H           0.74727148190381   -1.71444614464192   -1.89097856951502
H           1.00309792228268   -0.14073039045188    1.96256294356508
O           1.09466966580074    0.65586232353617    2.53736684076952
H           1.97488961850041    0.98962891560873    2.34216986681660
H           0.04688273592313    1.62077678842181    1.80865630375675
O          -2.72701323907984   -0.68002216966453   -0.34708387523490
H          -3.12204620939674   -0.92207717297011   -1.18667116615422
H          -1.85447116092971   -0.29373049394155   -0.56729286433618
O          -0.35570236952617   -2.82285959788293   -2.07289466312728
H          -0.75041616628365   -2.91616861506153   -1.15459639292417
H           0.07850071061249   -3.65727478069918   -2.26063173934847
O           1.50559544911076    3.38987135423773   -0.14401585676134
H           1.82096692577924    2.45641814100373   -0.19553412280893
H           1.54072456929891    3.72579670069524   -1.04085316285586
O          -1.21010913174518   -2.83299402068443    0.38050922165627
H          -0.43407144368557   -2.31416014868957    0.66984482424411
H          -1.93816105731054   -2.18588971509352    0.33476333221420
N          -0.49898728944376    2.13224843027120    1.05146625157787
H           0.11472954964144    2.89417884867264    0.68254005759907
H          -1.40496693464201    2.45750368927945    1.37076238437295
H          -0.57618321781499    1.42631211968926    0.25360341001868
