    26
        -50.45341005  Gyration_radius:  2.50253195368 Dipole_moment: 2.414
 S           0.66401397283632    0.48024597196436   -1.39337808734847
O           0.04308863006975   -0.76006686410132   -0.99771525341263
O          -0.17622384085808    1.34896357222962   -2.15374556035549
O           1.17222447621418    1.20689833351198   -0.11598386900011
O           1.96834845575593    0.21651311692173   -2.13047178446985
H           2.59266270937692   -0.20427061961660   -1.44136173402363
H           0.39783917420804    1.41424795031044    0.49769623958986
O           3.47374787610994   -0.65493612556509   -0.29043975614142
H           3.94535371461160    0.13193741696650   -0.00713423537819
H           2.97537277687319   -0.96556666395377    0.51254366090170
O          -2.44632337501797    1.68056097946313   -0.69000567976891
H          -1.76629400414268    1.71899619552706   -1.38408843504348
H          -2.79216938951395    0.75375899797912   -0.72936040277631
O           2.25245486344907   -1.43177414215819    1.91297618017732
H           2.35516363588560   -2.37231653442048    2.06837628647540
H           1.27852293836054   -1.26637704728624    1.89431427175463
O          -0.88758247877269    1.69477471852805    1.32544351145718
H          -0.88015785987082    2.57277087011607    1.71134496786783
H          -1.58803702957272    1.71401690424888    0.58381109857185
O          -0.36376364735628   -1.06389640142475    1.63299351715350
H          -0.65761736367108   -0.17034910807690    1.84850406326694
H          -0.28984294022425   -1.08091838353618    0.66068438651139
N          -2.88012634025133   -0.97475220568345   -0.80611337285124
H          -1.89987323416227   -1.10976289689626   -1.04327735166649
H          -3.43830221039911   -1.41238629378604   -1.52772119657519
H          -3.05247953995153   -1.46631172127834    0.06210854501914
