    26
        -50.45376621  Gyration_radius:  2.4599579196 Dipole_moment: 4.197
 S          -1.71415379601187   -0.62035028011546   -0.77597133555955
O          -0.91256942301077    0.53116873333056   -0.45618144039289
O          -1.82689699687975   -0.91947806743482   -2.16483282014392
O          -1.14991900044420   -1.83531910313318   -0.00838924295237
O          -3.12380750026759   -0.44751562962273   -0.16954901403190
H          -2.93721237485368   -0.28796818153674    0.79352355716187
H          -0.24495143640281   -1.61909385099678    0.44838904212712
O          -2.19698773132290   -0.28175600584152    2.25006316406958
H          -1.39034571943158    0.26883166968656    2.32293169968039
H          -1.91038580561684   -1.19135109176566    2.36788166169811
O           2.39126935706663    0.04100655547578   -0.79315195637366
H           1.78247859967737    0.01222714240518   -1.59207762251652
H           3.22043256734481   -0.35408592729241   -1.06643407308192
O           0.22451441668337    0.93483869556258    2.57122172464910
H           0.41652651030281    1.44005447010817    3.36216314144210
H           0.50646894794014    1.49702290337085    1.79473001053607
O           1.00522753829956    2.16583173724103    0.39869104351176
H           0.21919327726532    1.81988598523719   -0.05607560701260
H           1.72749483191019    1.62421329748051    0.04851996879170
O           1.01771775123798   -1.24619879111033    1.12492429618373
H           0.78780802273635   -0.54136642292328    1.75693688782790
H           1.55284525673773   -0.80460849667407    0.42754465233012
N           0.83055002043219   -0.05509879596140   -2.93725152294627
H          -0.09134049582580   -0.36887080737036   -2.63456493020367
H           1.10714578978186   -0.64534835053764   -3.71334736843790
H           0.70889740270885    0.88332861246997   -3.29969393635766
