    26
        -50.45211763  Gyration_radius:  2.4826255768 Dipole_moment: 7.582
 S           1.86233391115745   -0.80100992960770   -0.29511501147774
O           0.42020439552290   -1.08708145975192   -0.31173555999759
O           2.51841681221372   -1.23386061098996   -1.48387071038833
O           1.97260877345387    0.78009250676964   -0.17495565189719
O           2.44245657932682   -1.24228054952922    0.98251709184224
H           1.96765203187773   -0.29066507689813    1.87146757368136
H           1.69514013501449    1.08710881457650   -1.08118807660530
O          -2.78968330756022   -1.38661754237292    1.08446459853046
H          -2.31613547938840   -2.16308794031864    1.38837356549759
H          -2.21964139426906   -0.62412435501327    1.28432858561129
O          -1.53862554956985    1.40069802715004   -1.41560767450545
H          -1.79535307698371    0.43843031144320   -1.50696786588939
H          -2.15610849448375    1.89617820540353   -1.95480333057713
O          -0.80608386276677    0.57139651472075    1.17570769108044
H          -1.08058874816446    1.23540332117605    0.52650336576011
H          -0.35625274755263   -0.12021162933443    0.60321528633441
O          -1.98476332917057   -1.17002512175552   -1.53556766117209
H          -1.07024122854949   -1.37515612380543   -1.27525878494850
H          -2.51299591340716   -1.34717988053514   -0.73516664988979
O           0.94764771389865    1.06890144974168   -2.49995353435112
H           1.10681531429999    0.13543400162717   -2.67546108481003
H           0.02096536304542    1.17172663759466   -2.19516994220095
N           1.52328364506536    0.57305883351285    2.46136476499524
H           0.55044444325920    0.70308396836975    2.06810348744573
H           2.08557028209501    1.38882670069330    2.23503164698162
H           1.51293372161626    0.39096092711796    3.45974389093459
