    26
        -50.44886262  Gyration_radius:  2.4484831502 Dipole_moment: 5.404
 S          -1.58193374331528    0.11353360091450   -1.42681002121755
O          -1.34923918736700    0.74471766789327   -0.13094151559552
O          -2.69424016593242    0.62990067152208   -2.13722328195273
O          -0.25992433795609    0.30413238648130   -2.24038818838889
O          -1.66657420797208   -1.38063525319733   -1.25394679823225
H          -0.81990869049885   -1.73814975819014   -0.69530113088461
H           0.07006945666781    1.22268322434189   -2.04854991269652
O           0.28411861447535   -1.02971882219399    2.52288243439863
H           0.31439800934127   -1.73297444241695    3.17324208546488
H          -0.64374720057771   -0.69893122345483    2.51560572631798
O           1.11314926569119    1.11617413283491    0.82681386948999
H           1.21824109343893    0.56552958135575    1.61040168049499
H           0.19251641120942    0.95240709499101    0.53858769084246
O          -2.19936876244388   -0.10719957228312    2.23253806679176
H          -2.59124098547351    0.64434581867829    2.68030854486627
H          -2.01896198539582    0.18454448825523    1.31511212653818
O           0.53904673919597    2.64029582096906   -1.40880510499940
H          -0.27543553842569    3.06031139386787   -1.12082900471154
H           0.99010244324587    2.34341829303887   -0.60209615966587
O           0.31468926628631   -2.12754894377609    0.02470906765711
H           1.10111791357997   -1.71010404260023   -0.43581319978441
H           0.29694249431657   -1.73885802189866    0.92524786622783
N           2.28121869512159   -0.76732682996861   -1.11017034834759
H           3.24960005669391   -1.03206966280260   -1.22944218200561
H           2.23659212222267    0.05454598930070   -0.51264321131994
H           1.89877223390843   -0.51302357138838   -2.01248909927418
