    26
        -50.45954371  Gyration_radius:  2.58298865469 Dipole_moment: 7.022
 S           1.22533022552531   -0.37263930047946    0.11888323397221
O           1.45977078378967    0.27702543437659   -1.18808311412234
O           2.40711283231477   -0.52051663206812    0.91049407302105
O           0.23465031321398    0.63827677523014    0.85958292039565
O           0.42039179671212   -1.57074137631091   -0.03910404844917
H          -0.90033257645422   -2.14364404495085   -1.09554842696396
H           0.76439674748357    1.45252404284326    1.06490514020813
O          -1.72866808113285   -1.95757920169196   -1.57907854679536
H          -2.41778570712591   -1.87834464799332   -0.87750600586848
H          -1.40119590040221   -0.52474344275713   -1.77901838517203
O          -1.16060623811295   -1.52486368957231    2.08663597293069
H          -0.90218346269123   -0.68378832059734    2.47092192813743
H          -0.51316564325394   -1.67750353909396    1.36656766383828
O          -3.28948980691520   -1.40336330239078    0.50564043489178
H          -2.54850464654867   -1.42157954623299    1.16141993826899
H          -3.93176594900997   -2.04077351234480    0.82080690835274
O           3.60566434199206    1.57951750805290   -0.21731041657424
H           2.98747872767594    1.22441284003231   -0.87792768622497
H           3.70559639064360    0.83321732334586    0.39314905507403
O           1.69776910463610    2.77604439901683    1.14001478676569
H           2.52323499130459    2.43288068424018    0.70496363775422
H           1.45431214780330    3.57174964510160    0.66316826003427
N          -1.03755362439767    0.51272841809007   -1.69952055305986
H          -1.32094171915373    1.08659976817228   -2.48702380501906
H           0.03998123648410    0.44023870319768   -1.61054911802740
H          -1.37349630441686    0.89486498480566   -0.81648385740047
