    26
        -50.45050090  Gyration_radius:  2.58022320774 Dipole_moment: 1.384
 S          -1.35303182130705    0.70939265186117    0.46406847869269
O          -0.83427121952042    0.02193011672585   -0.70082268333609
O          -2.61508485628983    0.24517216825788    0.93402762163477
O          -0.29685963044356    0.58591845480970    1.58902528730879
O          -1.41114690668315    2.20562425319461    0.17744370673610
H          -0.49901755380106    2.52233570640396   -0.18568577424958
H          -0.69866686341418   -0.03849884208145    2.31053607769350
O           0.72595344961863    1.14205683704440   -2.67620143904045
H           1.54363916283118    0.60246505428279   -2.63823774346883
H           0.04835047364835    0.61637947583148   -2.22392004683960
O           2.90083988474370   -0.35793293583256   -2.07898725333321
H           3.68538941639442    0.08692533642806   -1.75513654546536
H           2.47514936918612   -0.77676496928223   -1.30451748147262
O          -1.47709174224763   -1.05465086592765    3.07223197823407
H          -2.35941750926886   -0.71106870747982    2.88845321808623
H          -1.35211069297562   -1.79591458111382    2.41349302072579
O           0.78792283916743    2.92994886975406   -0.82456141382328
H           0.84227323747051    2.27545372572692   -1.59309994576521
H           0.66227381866182    3.79592605391015   -1.21894732218841
O           1.45608623620022   -1.11875701891986    0.10227331362183
H           0.62721000194318   -0.75254211815292   -0.26273834917194
H           1.60629999761017   -0.62287935370163    0.91157909898454
N          -1.15043554884267   -2.55779387189464    0.91353065279074
H          -0.16759353228506   -2.62369906460784    0.66855580114112
H          -1.56870551787146   -1.87291624481108    0.29204816689661
H          -1.57795451499562   -3.45611014155582    0.72558958545176
