    26
        -50.45560621  Gyration_radius:  2.4366586127 Dipole_moment: 5.630
 S          -1.63613623250045    0.46163757956657   -0.71435619908605
O          -1.28862614503939    1.14588380091802    0.51682091262397
O          -3.00985489579706    0.08994385717581   -0.82676062663516
O          -1.21756625841289    1.33725745659944   -1.90656873074944
O          -0.72820610762814   -0.75814502965775   -0.87043404333628
H          -0.67999158967356   -1.37998520626718    0.06025605359643
H          -0.41012959361294    1.85444633513130   -1.59369629077821
O          -0.63360265129959   -1.97446352312110    1.25595164339807
H          -0.04058747276011   -1.33011070493420    1.73577040474837
H          -1.55086817303305   -1.77910488745378    1.57095766968809
O          -2.99711369582483   -0.87569973952645    1.68412324651200
H          -3.23341375576802   -0.62469224390235    0.77302313652933
H          -2.83122047965226   -0.04657044684307    2.14059493682766
O           0.67258078348679    0.12833692004906    2.06703297158174
H           1.44727916239038    0.28323349440817    1.50354666813135
H          -0.05062917374482    0.63084820606951    1.65010489708428
O           0.70035991652946    2.52435535263427   -0.70183457021890
H           0.11771636652915    2.51751909092211    0.06896951194101
H           1.43273172594682    1.91080658967629   -0.47930074209794
O           2.53341387394386    0.68158022455723    0.06302126655073
H           3.47349237134200    0.86518711667927    0.08817385122275
H           2.39329023096822   -0.05585891702843   -0.60074031132242
N           2.01159659164075   -1.21929068437829   -1.70940132342900
H           0.99907432502464   -1.15803342248093   -1.62266411609481
H           2.27810995374955   -2.16659213727366   -1.47149193351870
H           2.24830090318832   -1.06248907153186   -2.68109827311937
