    26
        -50.44938067  Gyration_radius:  2.46131847346 Dipole_moment: 5.331
 S           1.19493632992805   -1.51126482135774   -1.11495192997023
O          -0.17851617772461   -1.16844615460185   -1.40842522445185
O           2.14619899400486   -1.14205947049125   -2.10068026277114
O           1.56411614304151   -0.82168129705463    0.24375084575804
O           1.30429430148263   -2.98606270094443   -0.74236427353152
H           0.76727779121800   -3.11262468631865    0.11617020710171
H           1.68614172590203    0.15071106438771    0.00190308754721
O          -1.32311644616028   -0.83064797900717    0.98336422412470
H          -0.85136894694531   -0.04663846981341    1.31507264417078
H          -1.07240284712226   -0.91275931125806    0.04424496985501
O           0.14127598322999    1.43956578702030    1.77292408072906
H           0.77145610235708    1.20572134916139    2.45650608919708
H           0.66127923400802    1.72934305037826    1.01128830886948
O          -0.43887966654388    1.47858487143051   -1.93866309568253
H          -1.17917380190102    1.70739516157675   -1.31865590546010
H          -0.46141251065470    0.51085678427147   -2.01795848348139
O           1.71464114775473    1.58884228215077   -0.58221017059253
H           2.44703336740169    1.57768086851700   -1.20263550921197
H           0.87341466396672    1.63797808289933   -1.16148862913426
O           0.04987418989223   -3.02157823800848    1.47060553981059
H           0.71962356082969   -2.74534247359696    2.10045257509584
H          -0.57957820798477   -2.25571120111291    1.37879994333264
N          -2.32890662972607    1.88075665993453   -0.04666198268550
H          -1.81982344889124    2.17220636900175    0.77979718799252
H          -2.70476622385706    0.95840745995162    0.14333526858900
H          -3.10361864756363    2.51676701292083   -0.18351949518556
