    26
        -50.45101123  Gyration_radius:  2.57370917789 Dipole_moment: 2.763
 S          -0.60714534141948   -0.55297164127528    1.51002563396816
O          -0.80137015994594    0.48031216697461    0.51400593917661
O          -1.73513005773515   -1.40977042088841    1.69066610139144
O           0.64213976877890   -1.37811175428084    1.11085847114813
O          -0.19502252037034    0.05367385587312    2.83661889057276
H           0.68347577386067    0.59891624481026    2.72039478910978
H           0.49912651315415   -1.81290533619987    0.21718658393004
O           1.93192859593989    2.12804003576692   -1.84258728983328
H           1.30814819042820    1.38807423656276   -2.01228251046688
H           1.77612091669358    2.77285977570984   -2.53406056968823
O           0.11355471202033   -2.49354056224640   -1.15339404068936
H          -0.88433405195023   -2.30610283677434   -1.19393796083436
H           0.21952658383060   -3.44320987944962   -1.07302290566186
O           0.05511965681548    0.21028785691846   -2.04688905100036
H           0.36462426460369   -0.70138175791662   -2.04837068577029
H          -0.33292721024185    0.35170477323401   -1.16474201177595
O           1.84860745227117    1.47199139841281    2.52775673319833
H           1.54849015153420    2.01645172172602    1.73008100777605
H           1.90876811783756    2.08341964787220    3.26533446578226
O           0.79300158833042    2.69902479538030    0.53559599681166
H           1.31649665093162    2.58172890408530   -0.28737208572656
H           0.06829020482928    2.05469689107719    0.46975122265957
N          -2.39991341426827   -1.81747671004094   -1.02532580908787
H          -3.19673797364167   -2.39005735239130   -1.27374103779116
H          -2.51872597745299   -0.90949101310177   -1.45771101430025
H          -2.40611242484566   -1.67616302982971   -0.01483885290893
