    26
        -50.44601500  Gyration_radius:  2.46966414943 Dipole_moment: 6.654
 S          -0.51905336489205   -1.63316183073123   -1.63065459412815
O          -1.12320565248346   -1.64413915421753   -0.31153554682135
O          -1.18385351833719   -2.37431705932457   -2.63682703410931
O          -0.28886284348120   -0.17569122040782   -2.05782144869645
O           0.93589976444215   -2.15128300911533   -1.46765990915383
H           1.21042503783771   -1.83907729456702   -0.56945605160633
H          -0.88163448303446    0.55726040213959   -1.57422821914505
O          -1.56185495732291    1.58494485297960   -0.84766722225556
H          -2.07755639666219    1.15734217417510   -0.14457083950351
H          -0.80186641386245    2.04295593752081   -0.38390116215205
O          -2.53184135501974   -0.06240784632607    1.14952797408119
H          -2.06718133960070   -0.72775254464110    0.58048547684760
H          -3.38884751150206   -0.43633356493689    1.35883708136802
O           1.53214538431088   -1.42203013730423    0.98033650967844
H           1.34200523179569   -2.23920619687572    1.44616884988509
H           0.94192059132635   -0.74734325367499    1.36980231993712
O           0.52984280770071    2.39042139477520    0.49323829769846
H           0.44029336530503    1.79982950002070    1.25386863232226
H           1.24791163396615    1.99505710887248   -0.05614669581806
O          -0.11656852300562    0.33430931934359    2.31738653326918
H          -1.02733921199089    0.22547462616367    1.97782426281407
H          -0.18007055942379    0.43770323324495    3.26798151798946
N           2.27807836869018    0.92526506610743   -0.97281496892510
H           3.05355450477147    1.30399746462923   -1.50091385064846
H           1.61042500826749    0.53838693890079   -1.63291279126414
H           2.62723446221439    0.15979510325648   -0.40834711168182
