    26
        -50.47104602  Gyration_radius:  2.54682918577 Dipole_moment: 4.092
 S          -0.77590652371771   -0.63230116017331   -0.46858514323261
O          -2.27965177862641   -0.94400075961996   -0.65247070319098
O          -0.08180642397374   -1.86700225765305   -0.10846862152358
O          -0.26935837276217   -0.07771145175947   -1.70571787443982
O          -0.66778629070015    0.34634649650510    0.63137665835482
O          -0.82566905940338    2.46361784883206   -1.26821837538915
H          -0.67489829811090    1.55366732369831   -1.60384721545350
H          -1.20732505622533    2.33216237659397   -0.39551387273405
O           2.22026068452380   -1.16402777901748   -1.17414608101051
H           1.47512025220503   -1.64908546520239   -0.75685174505004
H           1.83764700820375   -0.84566115221579   -1.99936927230129
O          -1.01081301161463   -2.99036942861057    2.10060765799753
H          -1.25006406729429   -3.89138410553500    1.87702418702703
H          -0.57267452939768   -2.62051041270852    1.30324819491542
O           1.69879018895671    3.14642028424685   -1.00452270394728
H           0.71676009478280    3.04184929733889   -1.12269426597380
H           2.06562264233458    3.17780111887401   -1.88958672248110
O          -2.72416433159441   -0.94200567247274    1.87561052269162
H          -2.24129079318896   -1.74961390978060    2.15469596077881
H          -2.05909145648761   -0.23945848020496    1.88184286671832
H          -2.64609757065989   -1.00904141986720    0.28000517475392
N           1.87863851421507    0.91924378510218    0.42764308201333
H           1.93727417323970    1.83040010241020   -0.10812654002228
H           2.18654697422503    0.11376189911679   -0.19187645583108
H           2.41855060020816    0.95794342325759    1.28580837096450
H           0.85138644082716    0.73895949884780    0.63213292636357
