    26
        -50.44161626  Gyration_radius:  2.64534910611 Dipole_moment: 4.722
 S          -2.30678564674859    0.23382081544604    1.48683275305503
O          -1.41224269307826    1.22270343379799    0.92521735438622
O          -3.63148558164558    0.24531726774390    0.98345795834308
O          -1.65017147351405   -1.17468150175572    1.29721191254756
O          -2.28234975626969    0.35835413776987    3.01436361988217
H          -1.30492191869190    0.49635473308124    3.21430328929305
H          -1.28207181642701   -1.27343660422301    0.39052137233764
O           0.23576928866558    0.84057967512902    3.13055571554707
H           0.20612203171090    1.75745956312149    2.84410366651381
H           0.63187906624426    0.35342638919618    2.37455267623630
O           1.33637102798926   -0.42335319609897    0.99264511779299
H           0.66818273361051   -0.66345784437815    0.31114296773761
H           1.73581395411317   -1.24591190269854    1.28046078571733
O          -0.80255482604673    1.50600548389580   -1.61322240408245
H          -1.54099574630837    1.91113123995283   -2.07007753440926
H          -1.01867065532635    1.54356583625278   -0.65509904428460
O           2.02347643827682    1.06444667627618   -1.40286664867922
H           1.14205044737346    1.41048240587699   -1.59544624907789
H           2.00314946048984    0.81055078602245   -0.47191299800784
O          -0.38946036750437   -1.11327207725665   -0.98766424071348
H           0.34017579351855   -1.47158303198984   -1.56918636536595
H          -0.60127769682072   -0.24253600019543   -1.37240185898885
N           1.74504577759429   -1.59264247826667   -2.48870069113780
H           2.08765946525736   -0.65055138449070   -2.28253156509152
H           1.59143021136729   -1.65252582773659   -3.48714011367411
H           2.47586246219010   -2.25024662446873   -2.24911946588377
