    26
        -50.45233876  Gyration_radius:  2.51313250754 Dipole_moment: 3.906
 S           0.05599756014797    1.76568692410831   -1.30679448334106
O          -0.22078770207204    1.70116580640858    0.12393708790173
O           0.70691488308641    2.94461451329746   -1.74105090153674
O           0.92266531885942    0.52578902650104   -1.65377639385626
O          -1.24140900888979    1.54569475347640   -2.07352001511371
H          -1.65791839033610    0.64299837204856   -1.78695454401380
H           0.98896997201727   -0.13891033559874   -0.88424719297622
O           1.83300811619868    1.22941394326601    1.70053246830243
H           1.08304676635179    1.51897370014223    1.13192603348223
H           2.49892602964383    1.91524556835025    1.63791117428429
O          -2.11104910028053   -0.69937958387302   -1.33998525493196
H          -2.08063726673641   -0.75927212185043   -0.37434235578098
H          -1.43558574643470   -1.34722362810181   -1.68250483005445
O           0.04500825326050    0.21980895105627    3.58560285912629
H          -0.23461400351537    0.93261548793720    4.16146336964533
H           0.79073938827122    0.55974682335909    3.06293833749176
O          -1.27744303917820   -0.43154758356910    1.29699939306688
H          -1.07179897913913    0.45786045753234    0.94461346871299
H          -1.04419195291514   -0.38096955864482    2.24209050630333
O           1.10240084943170   -1.08275586898427    0.32321114136118
H           1.65550269467740   -0.55725778763766    0.92023320107446
H           0.19363445213599   -1.03779878884080    0.71327637924446
N          -0.11223951358216   -2.27283479502643   -2.17877633398077
H           0.41116546376079   -1.64670115081985   -2.77896064848333
H          -0.26501938543449   -3.14063432925700   -2.67598925726745
H           0.46471432067376   -2.46432880530886   -1.36783319865546
