    26
        -50.45036704  Gyration_radius:  2.47491963414 Dipole_moment: 6.474
 S           0.17744338629282   -0.59448655835181   -2.36622744901383
O           0.42223002054157   -1.59861423685112   -1.35626704094697
O          -0.31250641582668   -1.04829926771335   -3.61431193528405
O          -0.75829995581750    0.48469862230952   -1.75195432239719
O           1.47565664603959    0.21805718591947   -2.56415549116039
H           1.79390774940281    0.39966599356109   -1.63603798861806
H          -1.41523722615128    0.10817759174796   -1.03613037156813
O          -0.93009238475728   -2.61608008171514    0.62520610487187
H          -0.37282759864322   -2.34464805261903   -0.14014647843613
H          -1.32695689171510   -3.45406428269737    0.38259333409781
O          -2.23835997615811   -0.31302563505997    0.10869127737967
H          -1.87732810534120   -1.17769639308713    0.39653351180012
H          -1.97504747430735    0.33648202853869    0.79681134719450
O           0.19413762162458    2.57877160101300   -0.20121376786619
H           1.07972351430341    2.19995335913853   -0.11615077082873
H          -0.21412632271251    2.09667865519846   -0.93584071473207
O           2.23526745351589    0.67238880603723   -0.12903234307287
H           1.70988020214359    0.16838292402019    0.58859407583386
H           3.14498697024177    0.38022581508308   -0.05300713156829
O          -1.25233839601745    1.57195932124471    1.77528677467046
H          -1.86919114254816    2.22767276542406    2.10327611127864
H          -0.70677400267374    2.02721127507785    1.08249430844360
N           0.91442177065449   -0.47930642708947    1.81214555378281
H           1.45635843137951   -0.68661102938804    2.64140884115808
H           0.45972957129574   -1.33522055663616    1.51400110105569
H           0.18534256523189    0.17772656689713    2.07343347392561
