    26
        -50.45364872  Gyration_radius:  2.4701398959 Dipole_moment: 8.772
 S          -0.04289696406913    0.76921216880885   -1.49764254862874
O          -1.22609477510905    0.13795326386924   -0.95852201121250
O           0.02385982784491    2.18369231496287   -1.42171820896389
O           1.18345322753720    0.16549506798098   -0.74005955557544
O           0.15956007914506    0.29959804322280   -2.93920502791863
H           0.06789502513049   -0.73423680097483   -2.93575626832299
H           0.87774913017850   -0.71351157308490   -0.34709850438767
O          -0.03629333349340    2.96911444218043    1.25682912667534
H           0.00126251342419    2.96162206830812    0.29006156349970
H          -0.84167874518515    2.46536845426429    1.48935519013780
O          -1.90768920593433    1.02013745939510    1.57600031116780
H          -1.36642455550538    0.37588444469516    2.05728159637144
H          -1.87949971641246    0.75434448777612    0.64568110688494
O           1.77030923151785    1.15600168378688    1.89125325719812
H           1.17669131708616    1.94402585235365    1.78177693298318
H           2.05824348338567    0.94087556432861    0.99881906928274
O           0.09157074957154   -0.70943707256782    2.58729129454052
H           0.23945990653540   -0.95666744462912    3.50066195099530
H           0.76857025144898   -0.00008514007544    2.37778393591916
O          -0.00522561035190   -1.88658340017876    0.21095331715406
H          -0.79214867145000   -1.40221529888809   -0.09764381224701
H           0.05234139509350   -1.67650126985689    1.16997999704845
N          -0.06034049577632   -2.25710727481454   -2.75775538048409
H           0.14021351449781   -2.51840968486121   -1.79760645891620
H           0.56125509576171   -2.76678264882538   -3.37236651212357
H          -1.01414266472321   -2.52178769740050   -2.96835435086588
