    26
        -50.45012321  Gyration_radius:  2.55974722374 Dipole_moment: 5.302
 S           1.86318349953690   -0.37182887488643    0.62495234918544
O           1.00816316941454   -0.70335811230598    1.74875761413280
O           2.45986683862267   -1.47893456310471   -0.04044406932586
O           1.04229296766502    0.45066915890507   -0.37947543956319
O           2.94386144906874    0.61159514707306    1.10817597861046
H           2.40870394447887    1.32829478213562    1.59873326386497
H           0.09818617771376    0.73121007287490   -0.03525875245391
O          -1.26679570800728    1.05256698185905    0.38803436891150
H          -1.58158882484342    0.17735046252182    0.66838357778807
H          -1.68339564656962    1.20685888207612   -0.50418229908115
O          -2.11295207423080    1.30057642155433   -2.07721986686457
H          -1.71185649634768    2.05253347970144   -2.51570015484581
H          -1.69185892818728    0.50495528582644   -2.48559157849222
O          -1.34102621485838   -1.62269739984878    1.08995988546623
H          -1.69132902774260   -2.27357339159643    1.70024452689631
H          -0.46026188559424   -1.35109608944414    1.43854702315395
O           0.09789291456106   -2.34331421560297   -1.22336141845657
H           0.99981549774684   -2.15717090087793   -0.92330697049249
H          -0.48911484466804   -2.19447164140019   -0.46627702574344
O          -0.88302371265281   -0.78604901671408   -3.16120938476589
H          -1.39576523028809   -1.41491761425547   -3.67130189857630
H          -0.42599220067547   -1.31628564227913   -2.46834665549469
N           1.18553404024000    2.09226070801218    2.28276776338077
H           1.33801377911907    2.71683685429803    3.06402363617623
H           0.73008056562752    1.24794028942854    2.61414210316779
H           0.55936593086385    2.54004891605867    1.62495343342273
