    26
        -50.44822855  Gyration_radius:  2.54180016375 Dipole_moment: 3.932
 S           0.80263739154139    0.64330001123611   -1.87845874052050
O           1.14344787056908   -0.28797370461479   -0.82704555437229
O           0.30400452686327    0.07056990655950   -3.07527574151325
O          -0.20528840990509    1.67458568413635   -1.29514417524406
O           2.01277955837164    1.54193045663738   -2.17571413477615
H           2.23038426423279    1.97100924741040   -1.29992007992393
H          -0.78138919872510    1.32620796768704   -0.53577124142177
O           0.06560647521398   -1.80534467428173    2.61963652663987
H           0.02655637559252   -1.83273619258217    3.57631887197732
H           0.55286300213126   -0.99726476346637    2.37880894708564
O          -1.63106241986994    0.96207756000403    0.69059790587198
H          -2.49183169531363    1.37704984663807    0.61662924561058
H          -1.81134903201668   -0.05550520187982    0.73910459229321
O          -2.00513427094271   -1.53394148293462    0.82895594000763
H          -1.33225749610646   -1.80909980675836    1.47874336189843
H          -1.68748911181667   -1.87677457414271   -0.04696841883732
O           2.17611300907671    2.59960571536105    0.18565341428468
H           1.49399841537985    3.27506711351218    0.15808019627817
H           1.88397590172683    1.93240246066690    0.84530977776458
O           0.95898695594896    0.63503177028493    1.61225061185634
H           1.10899792183316    0.15727053965051    0.76612087374853
H           0.03225232254669    0.91462477087958    1.57197934743404
N          -0.89816538000270   -2.20442022533939   -1.51877637198917
H          -0.72037779105480   -3.17035601775503   -1.76674369668367
H          -0.00439277811118   -1.77534555917069   -1.29415618656007
H          -1.22386641712822   -1.73197085790595   -2.35421526103325
