    26
        -50.45361845  Gyration_radius:  2.46200771517 Dipole_moment: 1.805
 S          -0.96724614451311   -1.11832178305133   -1.00294106321511
O           0.24363207814781   -1.25023547531560   -0.23200682083932
O          -2.03648227804559   -1.97022754772500   -0.58195175593891
O          -1.42999616697512    0.36110572215633   -0.95410777895489
O          -0.69027019606714   -1.32114150450409   -2.48414247615503
H          -0.05447824111435   -0.55602678992156   -2.73077825960309
H          -1.11805147343764    0.85685183238928   -0.13075156483214
O           0.75580008759664    0.68636580251569   -2.96994739203879
H           1.03203493156466    1.17899473621221   -2.13980429984103
H           0.22382320193359    1.30511990231806   -3.47505138961521
O          -0.66383835011860    1.62226755470045    1.14251347902242
H          -0.33034089205004    0.85881975158244    1.70845717132552
H          -1.44419552388693    1.96350546014329    1.58456890175247
O          -2.62426957152718   -1.26992250522053    1.93020164259918
H          -2.49639424347095   -1.54693051334732    1.00068286279322
H          -3.16470111540678   -1.95039983626830    2.33556505720367
O          -0.04355490588118   -0.57224412509500    2.35505753548708
H          -0.96294019594367   -0.87738474029880    2.47220391550966
H           0.23941507016343   -0.98135445205425    1.51775942576520
O           1.42016769412856    1.99502224672993   -0.81338413694453
H           0.70500666916562    2.10774706096928   -0.17697587595883
H           2.05533914012181    1.37484014571680   -0.37712696354269
N           2.79516600879521    0.02568176029288    0.40190480127990
H           2.80179233394176    0.04517060336948    1.41425928069218
H           3.68507918040787   -0.34066075001065    0.08976157934314
H           2.06950290247694   -0.62664254629787    0.11603411469509
