    26
        -50.44678097  Gyration_radius:  2.47596201788 Dipole_moment: 4.730
 S           1.85353805668138    0.36118332985504    0.63020708451766
O           0.96632709433331   -0.49112372666023   -0.12339560264516
O           2.63613062890252    1.24949783769298   -0.16666872113280
O           1.01845410143581    1.16576299740965    1.66151616561824
O           2.73558002368066   -0.50274502465861    1.52768608043667
H           2.05690706280967   -1.13890472892187    1.95356218885023
H           0.10985866543154    1.37628444836263    1.29425477540799
O          -1.44635291628193   -0.99625801918928    1.53432776142523
H          -1.44607764611236   -0.06736936125271    1.27859692009616
H          -1.67187999072228   -1.48393117033077    0.71701010176088
O          -2.18169736835747   -1.99470043069768   -0.90821689195888
H          -3.04558121427045   -1.63595097429776   -1.11711886628659
H          -1.54685644602161   -1.55164409945074   -1.50506626371781
O           0.86471179553569   -2.01381781555431    2.33209475684668
H           0.00222031933440   -1.56916735398010    2.10779067022207
H           0.89728063901282   -2.78883813220295    1.76595073227956
O          -1.23038186179726    1.75349816370717    0.55511430528952
H          -0.77663226283749    1.92425411912039   -0.33747439282121
H          -1.54743442702982    2.59961937093524    0.87749089757435
O          -0.27749743811752   -0.73264451047560   -2.42744309036526
H           0.23219328156449   -1.36709852552329   -2.93469366070509
H           0.20425636626695   -0.62092320137000   -1.57880862372194
N           0.21230044347057    2.14977501191421   -1.58336917459886
H           0.25563154514172    3.01704329135732   -2.10420234306647
H          -0.01703561457986    1.40415616764242   -2.23306886502280
H           1.14203718251727    1.95404236659490   -1.21607595434391
