    26
        -50.46072737  Gyration_radius:  2.44914865294 Dipole_moment: 6.381
 S          -0.74753278589239   -0.45558740107019    1.65858692546901
O          -1.24098204285567   -0.35935075250732    0.26166231112780
O          -0.75962297599503   -1.81730832255927    2.10723541908093
O           0.58929698737300    0.15972495423279    1.71807461016093
O          -1.68434772486557    0.39412030552010    2.54594777508922
H          -1.41485960513057    1.34902148496167    2.43343525123740
H           1.44426981154642   -0.47445463218854    0.74971475537270
O          -0.14031985008173   -2.66749985057017   -0.40938152739109
H          -0.24683608926409   -3.22618300715654    0.36745413667197
H          -0.68651704808224   -1.88120490707041   -0.17901115225430
O          -1.07485440345775    2.87455746440696    2.04111534556079
H          -0.68750066931194    2.71775742088422    1.14922453151989
H          -1.89808229132348    3.34610571006803    1.89474488576703
O          -0.80662618576426   -0.60061049889055   -2.44433613246934
H          -1.20382000868836   -0.37400472391257   -1.58713181924745
H          -0.69453839484086   -1.55545221231476   -2.42139414814970
O          -0.41952127255702    2.07916801701958   -0.40235251686160
H           0.43668877876167    1.91378446125913   -0.81073961620967
H          -0.77457538140299    1.19576744591468   -0.17408340293940
O           1.49682710183080    0.67019154821036   -2.14429107076619
H           0.61600470828430    0.25905201262792   -2.34151080361203
H           1.82966501338965    1.01152104150205   -2.97477077515648
N           1.93973852397561   -1.02054849813002   -0.07162430821491
H           1.28251459061992   -1.81254705170676   -0.28719056579315
H           2.85827961975156   -1.34648382682349    0.20617037745629
H           1.98725159394470   -0.37953617149856   -0.88554847553825
