    26
        -50.45018981  Gyration_radius:  2.49739190552 Dipole_moment: 5.271
 S          -1.42256289932995    1.67441579995409   -1.00439802124668
O          -0.41167353171357    2.36421127716370   -0.23470871849383
O          -2.12966896324583    2.42651752515404   -1.97044334555439
O          -0.72818696895385    0.43663011740446   -1.65847916602812
O          -2.42982429783327    0.99960331572615   -0.05220247012846
H          -1.95757453067194    0.51929240453417    0.69286118317713
H           0.26580126955748    0.65688161474250   -1.69480305618720
O           0.74984420052502    1.54143136839554    2.03978871959093
H           0.03278175176336    0.97111341458352    2.35037710078373
H           0.36282624204360    2.02641143154570    1.28650160213636
O          -1.30919202437857   -0.29708035982137    1.87413455755332
H          -0.67623918141936   -1.00873509770978    1.51817266400248
H          -1.99943510209779   -0.76466222769411    2.34715161276688
O           2.34305019371926   -0.10327166849893    0.78605358829868
H           3.21683670482004   -0.11215108534009    1.17843349521849
H           1.79324188535482    0.53097440636274    1.33120895001473
O           1.67962117815351    1.18830859820323   -1.48231840273095
H           1.35718316739252    2.00526790954198   -1.07568840913898
H           2.04230470535457    0.64905236788440   -0.74557315328609
O           0.34449718090933   -2.02491760448825    0.95278789742982
H           1.15535971598229   -1.50189364825438    0.84193718096030
H           0.05531867915538   -2.27993159771032    0.04197089177922
N          -0.49243821353668   -2.49519158157411   -1.57332545903860
H          -0.74012747337405   -1.53624656889441   -1.80091556180151
H          -1.31341291347717   -3.07044172159006   -1.71285564303845
H           0.21166921530623   -2.79558839962145   -2.23566803704206
