    26
        -50.45168948  Gyration_radius:  2.43190306495 Dipole_moment: 1.669
 S           0.93375871299359   -0.25398790913559   -1.53131575378520
O          -0.10721927092934   -0.45613963919857   -2.49908705054944
O           2.27326744940853   -0.13814179147602   -1.98351142998326
O           0.59166388576910    1.02538352036006   -0.71599150435703
O           0.88348204130244   -1.39866940395768   -0.49073679877079
H          -0.04900570556062   -1.57060821250461   -0.15480124292660
H          -0.39572342937141    1.20906216411989   -0.67969866082733
O           1.12573510018902    1.26610662261409    2.06234382984669
H           1.09164589609088    2.00446581556670    1.45037471988136
H           1.83848600632544    0.68273611392123    1.69872396151206
O          -1.44158351387102   -1.78450244669518    0.52049259992860
H          -1.40776836441536   -2.53687893402024    1.11395904069397
H          -1.46208562030424   -0.96031477013251    1.11217960795866
O          -1.37478931679431    0.37283482347040    1.89867232175964
H          -0.43839539831450    0.64860338570317    2.05967307084470
H          -1.74009870353137    1.02597532188936    1.29002237895195
O          -2.64846827934250   -0.66615540024646   -1.72215606727295
H          -2.52749055970218   -1.30227784566217   -1.00378425855958
H          -1.81685012776952   -0.69670992867649   -2.23435412635138
O          -1.93626169470136    1.55304009203169   -0.60862890481879
H          -2.34173653020632    0.73132776553299   -1.02594837095288
H          -2.14272357067076    2.28154039430925   -1.19680561390005
N           3.09389058892789   -0.11542668030084    0.81922413706152
H           4.04604720273417    0.18782453838915    0.98695516974363
H           2.90002350963980    0.00070229662459   -0.17201534024532
H           3.05219971208487   -1.10978991250822    1.00621427514811
