    26
        -50.44252653  Gyration_radius:  2.46191127474 Dipole_moment: 7.278
 S          -1.19946680803229    1.91789458065500   -0.13117330855066
O          -0.83165374784778    0.74548247372992   -0.90270898308708
O          -2.32922886656579    2.63524711226174   -0.58680787784238
O          -1.35888465337892    1.49251553541416    1.34612942879422
O           0.02494970910820    2.85930410708207   -0.07440544820161
H           0.82171311384850    2.29575374460316    0.12698907363234
H          -1.39283285555544    0.48842241188225    1.46003153935928
O           0.32065388241286   -1.76971245974791   -1.31565251082247
H          -0.40898932605675   -2.38970315788541   -1.42301434746282
H          -0.12628058625476   -0.92914990630523   -1.11990723891900
O          -2.44639859179656   -1.69020623821633   -0.77012872748101
H          -2.24334767045285   -1.62432338120385    0.17124826387680
H          -2.33372823783776   -0.79975658242573   -1.11711183654199
O           2.14519642695452    1.37710923160413    0.21759776068434
H           2.89397380170863    1.97694522956191    0.20039796490228
H           2.05536880253008    1.01706990674819   -0.71052062694862
O           1.58838888427015    0.56359306020229   -2.20390916459643
H           1.56402727647341   -0.40220158764576   -2.24031203395297
H           0.66114864592039    0.82158788283122   -2.07640538139747
O          -1.34079827377871   -1.01656451482204    1.77970337898731
H          -1.53815824419088   -1.14418369439813    2.70930390171857
H          -0.33671119876694   -1.18062417994297    1.65709392728102
N           1.20708557236300   -1.29984346207241    1.36444285534239
H           1.61465523947397   -0.37490609695557    1.27559994331903
H           1.17095891394719   -1.70209679756080    0.42757765635268
H           1.81835881152530   -1.86765320745397    1.93594182164799
