    26
        -50.45465445  Gyration_radius:  2.46300877396 Dipole_moment: 5.248
 S           0.29514023734515    1.38255907142994   -1.42812811384336
O           0.94420369863891    0.86726994343691   -0.22583027954608
O           1.04727711464535    1.14733043107770   -2.61270875181775
O          -1.11257994282080    0.78118678633262   -1.50309154432048
O           0.01358186856591    2.87230099353881   -1.25262688266754
H          -0.75303595526642    2.98992738876294   -0.58949169174196
H          -1.09008040138442   -0.25988449924811   -1.49852518974285
O          -0.95106404284813    0.89058708409275    1.66672152821948
H          -1.31907114919066   -0.00280004526837    1.61669760684924
H          -0.18235600965717    0.87978733353298    1.06647420528650
O          -0.88005584094816   -1.70911060297032   -1.34501193442246
H          -1.06291260974730   -1.85387123614678   -0.39187278727430
H           0.09108634681035   -1.79504634744552   -1.45758321643076
O           1.78310396186639   -1.34541925969973   -1.56045929289927
H           1.94571095563349   -1.03730830361364   -2.45681108354160
H           1.66656715415814   -0.52870342855688   -1.04599948511533
O          -1.80660201865253    3.08165381584983    0.51683892050035
H          -1.58009703019049    3.78566547713782    1.12916620549797
H          -1.65792237346305    2.22922848920533    1.00274181074492
O          -1.09423548008397   -1.90103826372916    1.33811864288920
H          -1.39379246475859   -2.68230983006858    1.80414198492643
H          -0.10620101918751   -1.83028630585921    1.48028904680167
N           1.54217138261399   -1.57576470464792    1.48649685751303
H           2.10875792098639   -1.67078396131401    2.31988745527070
H           1.57465398546777   -0.60301487191446    1.19603451563335
H           1.97775170145746   -2.11215512390344    0.74453147323028
