    26
        -50.45935391  Gyration_radius:  2.71603639327 Dipole_moment: 5.534
 S          -1.34427303161978   -1.61617415039852   -0.22904241458066
O          -2.23639782921282   -0.87050261475793   -1.08887936909547
O          -1.79477235541948   -2.91755575666571    0.16447552426214
O           0.00658616710629   -1.83459146356196   -1.10171192675876
O          -0.84191249980479   -0.79143374791716    0.88418705994354
H           0.68553424499454   -0.60486439593946    1.12998736736378
H          -0.35082490857244   -2.40200195586919   -1.81402902153416
O           1.50727785321955    0.46709263496181   -1.40447413891857
H           0.70984532667390    1.01312109333367   -1.25269631838706
H           1.15331196832786   -0.40261067134261   -1.64493715726543
O           0.20501888146827    3.38569609671444    0.99573483600124
H          -0.30716934494841    2.73978477561874    0.47185437822126
H           0.67463361411005    3.93423184248577    0.36528855989158
O          -1.78426915681680   -3.12355760145760   -2.53464778974037
H          -1.99100600311927   -3.60193135114082   -1.71913684010656
H          -2.27299343463868   -2.29215348047573   -2.44403457438537
O          -0.87787806471474    1.41596995905836   -0.52044395090178
H          -1.61915294105820    1.23415044038353   -1.10902990442162
H          -0.91337977614894    0.64901891731983    0.09860924834890
O           1.60125629309841    1.89893480908218    2.70493296341959
H           1.13044709149858    2.52627629596630    2.10544435661354
H           1.03706738134579    1.80473229785049    3.47457566260418
N           1.69037991334157   -0.25468079013049    1.13517167958230
H           1.85153000408643    0.07919511710448    0.14258684939955
H           2.33268961440066   -0.99686114963260    1.38812239286942
H           1.74845101240267    0.56071484941272    1.80209252755371
