    26
        -50.44570165  Gyration_radius:  2.44719818212 Dipole_moment: 3.938
 S          -0.98970298531946    1.53427663427313    0.92542979632437
O          -0.10921298207398    2.32689992119519    0.11016976381160
O          -2.36449454013547    1.50116600485050    0.55432235839955
O          -0.45876216820365    0.07483323705188    0.94961803317130
O          -0.81535235024773    1.94341692934934    2.40429787236926
H           0.17260973125903    1.85589793339813    2.52182810341065
H          -1.08260786871750   -0.49967664167453    0.36987259186108
O           1.72035074488123    1.61530417854893    2.03023134569272
H           1.59521151052663    2.15875353291561    1.24180877376807
H           1.89529539554213    0.71670175041637    1.69404600238163
O           0.20948840775939   -2.64871849713080    0.80084163617616
H          -0.46727572597517   -2.50771282171555    0.12947639691760
H          -0.20000789063526   -2.41791607506562    1.63795070794174
O          -2.05764022755577   -1.19438228626507   -0.51603987325149
H          -2.78191075407990   -0.57517427924942   -0.37479198252374
H          -1.67413802477341   -0.97142035141295   -1.44140609659501
O           1.30063512032320    0.66310905321935   -1.52057263860813
H           1.70604007137453    0.13054502359060   -0.81938365272844
H           0.83491400067240    1.37889537750040   -1.05874549263159
O           2.23030301367466   -0.79973301299831    0.70646758384840
H           1.49263364925651   -1.44441951877569    0.73518754840589
H           3.04316993948659   -1.30649571763417    0.75051149646112
N          -0.95146692402514   -0.49370332002014   -2.75552295359234
H          -0.06574658159407   -0.10415350116278   -2.40884300652455
H          -1.45030852067593    0.25787953778851   -3.21459094526057
H          -0.73202403068396   -1.19417310082195   -3.45216336933543
