    26
        -50.44794261  Gyration_radius:  2.71315097888 Dipole_moment: 6.442
 S          -1.11129408233478   -0.53863184537299   -0.50409913540201
O          -0.56498196845286   -1.30010881237364    0.59182885885098
O          -2.17565312917678    0.34975525651021   -0.16592721120588
O           0.04396815320342    0.24406813181259   -1.17317447750474
O          -1.56120307325193   -1.47785362910610   -1.62582118838348
H          -0.80537353316209   -2.11926955358015   -1.82759592024162
H           0.42346773274820    0.93629939955926   -0.46403737408735
O          -1.21377342201879    1.62292958505452    3.68345860185458
H          -0.70681504347304    2.20352216222089    4.25354813212704
H          -0.60232188415703    0.93312653764409    3.37040051836346
O          -1.54342124958402    2.63943695648223    1.16223997725447
H          -1.99144310793351    1.94256135846981    0.65373605604314
H          -1.62788947745294    2.37084194240130    2.09728625898864
O           0.62939678520084   -0.10511717935766    2.56727375210744
H           0.12721025452632   -0.60094026836419    1.87338434939611
H           1.15101305865046   -0.76248275088435    3.03082046243191
O           0.83775539616058    1.79898873267733    0.59359329813723
H          -0.02048897654514    2.28621157092083    0.79121882900813
H           0.98108832127549    1.21732191430023    1.36029636832909
O           0.37197919909645   -2.99784539431852   -2.33072036037728
H           0.08682577403289   -3.45736414053860   -3.12362482637098
H           1.04154549160750   -2.31369308238896   -2.61538026027993
N           1.95424477503686   -0.97114371556475   -3.03995286044537
H           1.39885769671726   -0.32109947337518   -2.48798639074491
H           1.97795593944667   -0.62871700101688   -3.99228659188127
H           2.89935037981440   -0.95079667181179   -2.67847884598621
