    26
        -50.45123058  Gyration_radius:  2.47035705538 Dipole_moment: 4.658
 S           0.45291577562350    1.01211659082891   -2.12434498027225
O          -0.26322639729941   -0.15841774178597   -1.66798585582063
O           0.12813789875583    1.47946966946975   -3.42048506996369
O           0.26365848599060    2.13061541010214   -1.05601419238503
O           1.96505777982813    0.74739478809305   -2.01623561912377
H           2.13636136473472    0.60684619085244   -1.03598537212345
H          -0.58882808150252    2.02116296702454   -0.54377139014915
O           0.15428991318593    0.73337475708530    1.95067687471339
H          -0.51855911659733    1.30596464409749    1.56292236779794
H          -0.24462106009779   -0.15609144702138    1.99376179911802
O          -1.89457728884345    1.84796512676461    0.33852776425425
H          -2.59528172865959    2.43383685131349    0.04819517768427
H          -2.21389266595324    0.90468990040044    0.16848963866088
O           2.33583042685625    0.49695135037739    0.51352755994138
H           2.88426176134114    1.23954518339566    0.77445213985408
H           1.49406682933637    0.58635684203025    1.04426637465748
O          -0.86359839250359   -1.79783592583791    1.73038421847590
H          -0.14627584751903   -2.03505215993512    1.06682959109008
H          -0.89199922380810   -2.49963959681842    2.38093460797842
O          -2.46027287539298   -0.61119154854559   -0.17685724076978
H          -1.78754735966203   -0.62994753967687   -0.87979269424405
H          -2.07207252407516   -1.11966468017742    0.55655413731865
N           1.01121162906728   -2.18033202431133   -0.08742892059333
H           1.87191018078385   -1.73409064338294    0.20805421942798
H           0.59382158888277   -1.56982377788346   -0.79003099779130
H           1.24922894752142   -3.05420317645669   -0.53864416773861
