    26
        -50.45192267  Gyration_radius:  2.49084983068 Dipole_moment: 5.216
 S           1.86088580756725   -0.76404629372917    1.24627345436225
O           0.73339618288667   -1.58615156764520    1.64652422639298
O           3.14680878397988   -1.30680167517951    1.47924661733306
O           1.65689234041119   -0.43356086628523   -0.26312689143653
O           1.75546569844328    0.61908197891599    1.89719393497720
H           0.83260295585346    1.02573448993998    1.73684580319186
H           1.07685939357629   -1.19610245562277   -0.64628434312537
O          -1.74356850569560   -0.85853202886784    1.99128390630412
H          -0.81699043016188   -1.19359950872122    1.90450682147690
H          -2.09917285928095   -1.24872358969082    2.79067114246103
O          -1.18420204941750    1.66465785617602   -1.16602572204903
H          -0.30524286624169    1.63820912001184   -1.64491570283110
H          -1.67754056336623    2.40393422881940   -1.52362554428737
O          -2.08492556469648   -0.92422028657364   -0.76622303695319
H          -2.19020311540199   -0.93079485592856    0.19797084458306
H          -1.84738261341269   -0.01151251332315   -1.00053801404402
O          -0.57848611328437    1.53671411437919    1.47627108072874
H          -1.15509523469591    0.80752177618334    1.76893807970515
H          -0.76077230396629    1.65030963705735    0.52123708380131
O           0.13965855050556   -2.30591236819067   -0.95673812241695
H          -0.74880719854194   -1.85472118892622   -1.00868151010817
H           0.16405978822706   -2.73567975169130   -0.09406344739193
N           1.19764533794577    1.56372343177441   -2.33112785290744
H           1.77446381213298    2.39546319730209   -2.34864315975002
H           1.24605143706971    1.12948903585246   -3.24432699123118
H           1.60759932955175    0.91552007399986   -1.66264264678443
