    26
        -50.45624242  Gyration_radius:  2.4403094528 Dipole_moment: 4.895
 S           0.22029361302077    0.94631461106788   -1.75999084476962
O           0.33837471753223   -0.41617267847955   -1.25670584209503
O          -0.86052152343295    1.11935194669043   -2.66833962464537
O           0.10152929547072    1.88859629162022   -0.54494810016566
O           1.53932073179976    1.38969927880122   -2.37956312818941
H           2.18645448495387    1.62372527418263   -1.61762014308970
H          -0.70273743941154    1.61483267746417    0.06834558434280
O           1.98978668012946   -0.18935586294661    0.85561935311768
H           1.45923215901278   -0.40934641754990    0.06961678027821
H           1.35903149104148   -0.17881890630764    1.59015384867838
O           2.90654557875919    1.97651062166030   -0.32614094402264
H           2.73120565990668    1.16779961575406    0.21904368270846
H           2.35034548758906    2.66834531252535    0.04362790499790
O          -0.29722229504251   -0.60620868004775    2.43476656762996
H          -0.42360064899083   -1.39883010003909    1.83385687712135
H          -0.52350827580390   -0.88408739206954    3.32303394709527
O          -2.36196266830525   -0.66515602726912   -1.10995640192043
H          -2.68919801535820   -0.13914676859199   -1.84553143735921
H          -1.40600179295066   -0.73436387057325   -1.27330524693083
O          -1.76316295640291    1.03554543968380    0.88219402050404
H          -2.17329184451774    0.39080244354806    0.26421987107065
H          -1.27349337917178    0.50485984013784    1.54777421661994
N          -0.64729200024802   -2.53861345913107    0.65024872692627
H          -0.34680587559028   -3.49878497015280    0.76120749423842
H          -0.10135278955366   -2.12567454969828   -0.10042121375945
H          -1.61196839445164   -2.54182368023934    0.33881406163613
