    26
        -50.44557923  Gyration_radius:  2.52601821407 Dipole_moment: 7.128
 S          -1.05267476656471    0.94250909054837    2.00814959265871
O          -0.11081799971328   -0.15163249729759    1.99549967649381
O          -1.08728309829951    1.72436374271042    3.18799227207082
O          -0.74157018324697    1.82259421471224    0.74953902462497
O          -2.46211507566852    0.42252555557737    1.68048520770349
H          -2.46396316212803   -0.02504181610501    0.78299866150433
H           0.23450592208915    2.03366909713983    0.88058367748338
O          -2.56083023811241   -0.76799143259516   -0.60439962987337
H          -3.34299923518633   -1.32241662299516   -0.58231233770599
H          -1.79845613490400   -1.35640867019226   -0.83675751093913
O           1.74096988535820    1.86957142706778    1.32276676286396
H           1.59958473132268    1.22899819063438    2.02782734891033
H           2.14433159957562    1.36876981710236    0.57762075723189
O           1.33637557088785   -1.79396182846286    0.43016632171523
H           0.82897159807399   -1.30255981334243    1.10122108070850
H           1.93163452142425   -1.14130189480927    0.03072356161577
O           2.50164581729596    0.41625463784815   -0.80198577890012
H           1.62835152138927    0.52219388479803   -1.29425133276931
H           3.19940794895711    0.68335285080578   -1.40113120298397
O          -0.53275631481792   -2.31445099660055   -1.30371967050869
H          -0.64266685001270   -3.26603553340624   -1.32235658823762
H           0.20985240052539   -2.14091322840452   -0.65460701625744
N           0.12710855802551    0.63927249315045   -1.92902535265656
H          -0.04246457169620    1.16861991406566   -2.77466913698000
H          -0.43845992202184    1.04664124446449   -1.18996280575124
H          -0.20568251261250   -0.30662183634581   -2.08039559201225
