    26
        -50.44557916  Gyration_radius:  2.52597671813 Dipole_moment: 7.125
 S          -2.38520044071072   -0.50960690374232    0.28089288050453
O          -1.77819241540012    0.78406747027811    0.48663778594507
O          -3.74804259206484   -0.50712864224690   -0.10272776474944
O          -1.49885960308798   -1.26429259531489   -0.76804290353623
O          -2.19269006785150   -1.38189740340168    1.53238894861459
H          -1.21551163302433   -1.48504422458658    1.73310721360255
H          -1.49154467353965   -0.61495987246370   -1.53798975437455
O           1.91527273022259    0.38740192200130    1.87670298788893
H           2.25562597476327    0.82912702660697    2.65581650682268
H           1.41795918598264    1.08918719524468    1.36376439358342
O          -1.51887208610954    0.75357953107292   -2.32418053371693
H          -0.57591436802911    1.03572478250086   -2.32377281937534
H          -1.95484415391266    1.28277746824853   -1.64789827025046
O           1.09794764826806    1.28675627849652   -2.05244381878777
H           1.32408179601811    0.39515410996757   -1.63997704530745
H           1.68953060345569    1.41433701201118   -2.79471789152489
O           0.54200575996730    2.14635804230318    0.53836586265805
H           0.79093258462915    2.06255447543810   -0.39483943342256
H          -0.35169335142795    1.76355646551225    0.60160976917950
O           0.29414554160829   -1.68502992157003    2.14188220102073
H           0.87840097920934   -0.89003531475824    2.05183786146764
H           0.31274916199749   -1.94022520751141    3.06611551030627
N           1.54449529998255   -1.01854474990903   -0.85056466796905
H           1.95674610381915   -0.79511766687782    0.04859915021590
H           2.08415063471900   -1.76850547470134   -1.26335580229389
H           0.60732139060891   -1.37019382250962   -0.67721036644188
