    26
        -50.45060075  Gyration_radius:  2.56282469253 Dipole_moment: 6.183
 S          -1.44630630988080    0.44027098472161   -1.64746687722095
O          -2.24030065804551    0.42686136786249   -0.43815432154445
O          -2.11597052315544    0.75217374439982   -2.85353970190102
O          -0.25697933599708    1.43122601528287   -1.38857334145442
O          -0.70656573670947   -0.89466509368210   -1.79487107075124
H          -0.21838436618462   -1.13648447786946   -0.91995734488670
H          -0.65172895171559    2.14757047960922   -0.78669671535699
O          -0.00022950892180    1.73352444062616    2.32351937133554
H           0.04181456334555    1.96113567011435    3.25277918956193
H          -0.51800241132771    0.87953128218804    2.26108263742439
O          -1.42202296021016    2.88491941550698    0.32734106244311
H          -0.90712519053508    2.65054086908723    1.12782858420279
H          -2.15796606855633    2.25653993979014    0.29357261994617
O          -1.33726116495543   -0.47159865588376    1.92004534751797
H          -1.84215984520926   -0.20784129345505    1.12650018313355
H          -0.68811560184913   -1.11076163933030    1.59411111970823
O           1.81086796471798    0.86720504867815    0.42921722515522
H           1.34811248022582    1.28525072525378    1.17617192060963
H           1.39540827298726    1.22583029048337   -0.36622833571014
O           0.63225974812931   -1.48298870509699    0.26803131784956
H           1.18464726999644   -0.66591794314282    0.38516115236907
H           1.22100402982348   -2.14771343178180   -0.16699941693909
N           2.10731533827751   -3.08021253891781   -1.32005438985596
H           2.15022238574806   -4.07830009141433   -1.15821114881082
H           3.04900395091954   -2.74538722234037   -1.48128943304474
H           1.56846261908953   -2.92070915069680   -2.16331963376656
