    26
        -50.45061028  Gyration_radius:  2.56544139474 Dipole_moment: 6.160
 S          -0.56159302135412    1.03377649398701   -1.89630531096403
O          -1.54773980654061    0.14528141397500   -1.31697474743106
O          -0.88440661546692    1.61629699846974   -3.14404654316628
O          -0.26037407309028    2.13022241762628   -0.81606902712502
O           0.78642645286015    0.31183041864170   -1.99083420006055
H           1.02820351493675   -0.12939820850980   -1.08913625193784
H          -1.14604286432450    2.26919643008834   -0.34184910490227
O          -1.30695432103131    0.81120028166975    2.45917480443066
H          -0.38663059451025    1.09553052653705    2.21231323755361
H          -1.42085402085125    1.03146572820693    3.38437606094137
O          -2.50822044505240    2.02415867179414    0.35539729503565
H          -2.23060277325730    1.63100425705511    1.20951208623988
H          -2.71434266145225    1.27689848452588   -0.22458261173874
O          -1.09646381731946   -1.42897459846349    0.80760805045470
H          -1.41602930188137   -1.00642773476550   -0.01192015628760
H          -1.31550779782025   -0.80914930451214    1.52076911648849
O           1.08037376859520    1.50903790720974    1.57234639517284
H           1.45292961920060    0.67608960989473    1.24226677051699
H           0.84694440135207    2.01290511957509    0.78073361414001
O           1.36471500217437   -0.83964253305890    0.18236783595703
H           1.83748286024555   -1.62961563409929   -0.18006688430318
H           0.47511691586148   -1.17422913826956    0.48896749529049
N           2.41086213011759   -2.94851756096744   -1.12478388194402
H           3.36151669435830   -3.25391322173280   -0.95977926022838
H           2.35016541247124   -2.60231343962977   -2.07483322265956
H           1.80102537177198   -3.75271339526475   -1.04465153942674
