    26
        -50.45376630  Gyration_radius:  2.45997136246 Dipole_moment: 4.197
 S           1.13198734178345    1.09491478849005    1.20234673870327
O           0.73627232157018    0.87045608314371   -0.16290367532488
O           0.63182745525543    2.29097691879649    1.79411502095814
O           0.71520459870655   -0.13378121956304    2.03904399355623
O           2.67309694839700    1.07671482787581    1.29825660082173
H           2.91310705137935    0.19721942905527    0.90228033105649
H           0.11859056510321   -0.78683508422916    1.49876245622856
O           0.97896333081655   -2.10584565201261   -1.46329695754361
H           1.20917953464499   -2.73093287747552   -2.15180389574192
H           0.51359250099317   -1.34299840613506   -1.91065348490283
O          -2.46360346673922   -0.08695397393674   -0.52180812462012
H          -2.23658623505168    0.82587867557071   -0.16831494973488
H          -3.38766059118181   -0.23764101346533   -0.31757494563120
O          -0.37486284005855   -0.06849763320949   -2.39104120751095
H          -1.25827310865964   -0.15642738852509   -2.00443868594467
H           0.09423545902813    0.50435701116118   -1.76169844347119
O           2.82336553439075   -1.35506674168029    0.40173316736076
H           2.45369756266891   -1.82079405863477    1.15656815375514
H           2.22030761162881   -1.53243138488415   -0.34934584653842
O          -0.68622233258420   -1.71243595470843    0.67004199963410
H          -1.36947299884383   -1.14147176134565    0.25178149073477
H          -0.10659427643403   -1.99572449606223   -0.05993809314268
N          -1.92365916991016    2.33242241445887    0.42544500072831
H          -2.58115387840851    2.75871595789301    1.06825421462746
H          -1.80075511232562    2.97296095404699   -0.35004643910715
H          -1.02458380621415    2.28322057537366    0.90423558101951
