    26
        -50.45000999  Gyration_radius:  2.49436234309 Dipole_moment: 3.391
 S          -0.08853041699712   -1.49047824262011    1.58048235192324
O          -1.16906182292311   -0.54844079067943    1.77053086906975
O          -0.47457533868736   -2.80756032167997    1.20550041606792
O           0.86164728153041   -0.91787837061256    0.50403421370575
O           0.77946645483364   -1.48313896930990    2.84724403413189
H           0.86093553029585   -0.50617354076300    3.06983387213262
H           0.74602270815253   -1.53343540688931   -0.37864127452115
O           0.31924463271601   -2.31918593961311   -1.43373364842363
H          -0.23235982711829   -2.94235729028287   -0.94455472853570
H          -0.28328114082363   -1.64915917888514   -1.89708146506613
O           0.65769115238400    1.78933354256518    0.49423443981823
H          -0.27414900727358    1.85132039282695    0.23746145340539
H           0.88167178237178    0.85091561856387    0.38190475113474
O          -1.98058021122830    1.02875662576820   -0.14720848348319
H          -1.74948705962423    0.40698774867553    0.58027537513722
H          -2.91186736162155    1.23140175360817   -0.04649760105083
O          -1.03377758005489   -0.33774575621969   -2.36235496913584
H          -0.25899758751726    0.23824235073428   -2.56656902483868
H          -1.48079280822247    0.11578673179266   -1.62742337741858
O           0.62625841082294    1.07631699884281    3.12470336686860
H          -0.32967080176251    1.06249685009882    3.23496355632277
H           0.77975994311314    1.49063612489770    2.24673168681854
N           1.20338990492455    1.21297242382832   -2.49869762340679
H           1.22038789959661    1.73409360061381   -1.62726869400985
H           1.33904692479543    1.86883476053591   -3.25740729169759
H           1.99160834827319    0.57745829419373   -2.49046219498042
