    26
        -50.44897854  Gyration_radius:  2.43908737937 Dipole_moment: 2.694
 S           0.31065050117946    1.07340434412973   -1.81053726882952
O          -0.11692266039346   -0.30801831562659   -1.80743445830384
O           0.45885277644458    1.68210617993041   -3.07863998225786
O          -0.70204803867109    1.87007315627900   -0.92649997028768
O           1.61581654497216    1.19429243636901   -1.00426125699617
H           1.38828819476394    1.38691643840327   -0.02663889881815
H          -1.46296147177031    1.28356196405630   -0.65343630345246
O          -0.86818639382798   -0.00271039196745    1.93263735932846
H          -0.47870426681100   -0.79149849208867    1.48090158649740
H          -1.66959722502470    0.20989064719211    1.43912590677016
O           0.30827031865850   -1.81079330647539    0.39666914992642
H           0.24959339160511   -1.31841488497620   -0.44228398145949
H           1.23711847504572   -1.68211327545687    0.68825266656050
O          -2.69611330139922    0.39017159256596   -0.16878374272588
H          -2.56421597051717   -0.53596865014055   -0.52771859825990
H          -3.52753557558748    0.70649596852377   -0.52627381864150
O           0.98271464766900    1.72848315431538    1.39102218167456
H           0.28123646871638    1.06786022079021    1.68045916006109
H           0.53867576451036    2.57743366534288    1.33509190721309
O          -2.15865985411173   -1.96422970142371   -1.16024153021153
H          -1.48895343632694   -1.58172610949556   -1.74880233484625
H          -1.65449713543927   -2.44558830889781   -0.49343991175002
N           2.79390532175415   -0.85756908137635    0.98463734088746
H           3.62696140807144   -1.34520081837425    1.28893183755700
H           2.59788202399768   -0.12367383198260    1.65558582868320
H           2.99842948249676   -0.40318458960686    0.10167713167671
