    26
        -50.45060068  Gyration_radius:  2.56383270507 Dipole_moment: 6.214
 S           1.98143982985458    0.45655915742521    0.93613755145018
O           1.56831342854732    1.68723173154591    0.29768999424584
O           3.19754292450291    0.48271734602663    1.65768761941828
O           0.78930992054705    0.00864705339350    1.85378305656909
O           2.01516677546347   -0.67574103322076   -0.09705531065165
H           1.13633564747652   -0.70158617115610   -0.63503908434752
H           0.38180223115027    0.87946623574994    2.18042702775795
O          -1.65939214224648   -0.89380122673832    0.81170002014849
H          -2.05067318459248   -0.00289287935607    0.80120914189241
H          -0.91603072136812   -0.84280697605205    1.42720059502096
O          -0.18486147579784    2.31206541608680    2.25533678693575
H           0.46304098647933    2.64741450520563    1.61864537870875
H          -1.02727841071112    2.22973541789556    1.76103419919668
O          -2.21085171884173    1.79622972528021    0.53400738068828
H          -2.99153222719204    2.31435682859630    0.33600831299449
H          -1.61096560737261    1.86636400691367   -0.26389630806085
O          -0.48214235711991    1.85404423007334   -1.42064148908030
H           0.34077245662863    1.94259379106782   -0.90186796423400
H          -0.45521552240864    0.95088447579719   -1.76682555655930
O          -0.16621020877159   -0.88891112097013   -1.35777338262027
H          -0.01622816001696   -1.80769396265332   -1.69105684057648
H          -0.81737175784600   -0.97220521460765   -0.61228371328388
N           0.55607422555883   -3.42079637173077   -1.92214814066987
H           1.46232370803110   -3.38061308440087   -1.47069365427662
H           0.69492367083376   -3.71613907092834   -2.88008067439419
H           0.00170767921303   -4.12512280923304   -1.45150492625798
