    26
        -50.44664368  Gyration_radius:  2.5047688207 Dipole_moment: 6.992
 S          -1.70814537717850    1.14580814095297   -0.69912116319146
O          -1.15404318028254   -0.11284995049689   -1.15179319694692
O          -3.12676619450983    1.22258291617088   -0.75166065369011
O          -1.21782773747160    1.36606300187818    0.77349653919091
O          -1.04993703525267    2.29407829670534   -1.44323938718889
H          -0.00098948795860    2.17686438860350   -1.47627742645145
H          -1.74239174402808    0.65431218718070    1.25632740611896
O           1.42277197627198    1.89492579956214   -1.46424269135151
H           1.63613344260379    1.77432478228164   -0.49240062397960
H           1.51796090235442    1.00901530257265   -1.84977988756237
O           1.71243885206518   -1.69042250860440    0.51222831258296
H           1.56894822537663   -1.36542251441431   -0.40191150575938
H           2.34535786517126   -2.40790689754978    0.44730465990085
O          -2.64395014479734   -0.60987852017539    1.46375146190873
H          -2.05279851460745   -1.37614699930353    1.27887818499627
H          -3.21801458156316   -0.49617781919179    0.69950285491405
O           1.17245910395872   -0.81187472587450   -1.99116063781357
H           1.05714447306263   -1.37859873386631   -2.75569938243305
H           0.25575051454624   -0.57074313428210   -1.69358550629088
O          -0.79990670528761   -2.55500314326913    1.24539733461889
H          -0.66912214965977   -2.85287039360170    2.14781451820317
H           0.05135706211159   -2.17769206565724    0.95122624976587
N           1.71844398064523    1.30946708779322    1.10177654375884
H           0.74704853867155    1.48021134002082    1.34173358965930
H           2.30413946119365    1.76917783522390    1.78608006588334
H           1.87393847458888    0.30875633732777    1.16535433115097
