    26
        -50.45318486  Gyration_radius:  2.46024135753 Dipole_moment: 1.617
 S           1.34065032932749    0.48164297306074    1.23055367694890
O          -0.05798994857992    0.16616188563915    1.09205454678844
O           2.12365383405718   -0.51354056449424    1.88290963631679
O           1.91787737821777    0.77882181476363   -0.17899399743818
O           1.50161367814331    1.82777707058548    1.94324011445354
H           0.90013176333677    2.44951371836212    1.42233795277633
H           1.34621299715388    0.39506821264817   -0.91704994129065
O          -2.49303881031203   -0.16767693474851    0.14992003220798
H          -1.61947797010328   -0.05843339934325    0.57782823556636
H          -3.14840049498189   -0.05375139175168    0.83942817724727
O          -1.28628378498412    1.83129940374125   -1.36779780607611
H          -1.90793304864440    1.23189250528444   -0.92342282985495
H          -0.65028961120845    1.24749476835684   -1.80502468814755
O           0.51352022313830   -0.17099812252493   -2.09360560100734
H           1.07623190968277   -0.53105022260862   -2.78107835575639
H          -0.04101513588544   -0.95108771005479   -1.73562959022392
O           0.03244074866950    3.25328133148625    0.41901644237214
H           0.59299678357904    3.81148375817878   -0.12402881957343
H          -0.51238215501870    2.71326941398511   -0.21643823826290
O          -0.86311052631641   -2.08532660660079   -1.12417340836662
H          -0.32904104118640   -2.40680728770907   -0.34984082448626
H          -1.61925820210978   -1.61102439022995   -0.74970597755555
N           0.64037960346933   -2.85658838059391    0.97379012729726
H           1.13448997130937   -2.02770606110742    1.30001312577864
H           1.33581696348805   -3.56996155636390    0.78977398917340
H           0.07220451576218   -3.18375423795373    1.74592402111003
