    26
        -50.45239028  Gyration_radius:  2.43697213561 Dipole_moment: 6.078
 S           1.57645034941309   -0.28669866534116    1.41281358870469
O           1.63050401945785   -1.33643489963018    0.40583947863939
O           2.67862185418412   -0.21323975649465    2.29445591781482
O           1.38417504772389    1.05728140231420    0.67579025628014
O           0.27045889409723   -0.47969748198399    2.20439561029292
H          -0.52876370758027    0.07914073432796    1.83361261316336
H           0.92115287285218    0.91126484408274   -0.22239712192752
O          -1.88959940981974   -0.92370117691572   -0.87960080320319
H          -2.59610968583606   -1.32049836846552   -1.39012516276127
H          -1.45148918472205   -1.66114216877162   -0.37329633414619
O           1.98618343674758   -1.22813539692791   -2.23845986557886
H           2.04730531771394   -1.34057514286792   -1.27012250573237
H           1.82193865615069   -2.10096171814385   -2.59926399595261
O          -0.61728982743766   -2.69232814460950    0.57177014143022
H           0.28519534238025   -2.31284701939353    0.48940927228642
H          -0.84580927272444   -2.58635237394797    1.49895128883633
O          -1.65962908676263    0.79336948813190    1.24434669197493
H          -1.92938720261643    0.26129236013039    0.47622303306065
H          -1.34749422182790    1.66800509341043    0.88017402861787
O           0.22337488270883    0.66930887766505   -1.56234646981272
H          -0.56857248325314    0.12120341535184   -1.40569478240504
H           0.87036758840416    0.08163174866588   -2.00691894072080
N          -0.71894664000930    3.02837574320468    0.11735423949370
H           0.17576392066235    3.14198934364135    0.57855055392849
H          -1.18982394429187    3.92372880533393    0.10188582622879
H          -0.52857752565175    2.74602047722448   -0.83734656854564
