    26
        -50.44633149  Gyration_radius:  2.57609732624 Dipole_moment: 2.876
 S          -0.18617207813289    0.95343870751321   -1.77691705591614
O          -0.49621497994443   -0.34992885731914   -1.22797812115563
O          -0.58597932037028    1.17706598441499   -3.11508751105988
O          -0.75339454804260    2.01985093479865   -0.79789905620284
O           1.32812310167898    1.20505906003539   -1.63386321252910
H           1.51501327717870    1.36000250952458   -0.64727980369171
H          -1.71667232642606    1.79157813026092   -0.58487052323475
O          -0.05361874085790   -0.42267177737044    1.35744826271726
H           0.56096348187147   -1.18012861822460    1.51560329289602
H          -0.27201003052113   -0.47551586864484    0.39933661153990
O          -3.12895817238996    1.41311535648757   -0.11616272386225
H          -3.01691791335970    0.74865751207162    0.61410108361293
H          -3.59030403518521    2.16193618914198    0.26804993050610
O          -2.69743290244286   -0.32177365287618    1.83008955722860
H          -2.99197194999353   -1.20137804685104    1.58593680466094
H          -1.71711163369308   -0.35616149144574    1.83216932864707
O           1.54015529863139    1.60599742373949    0.87646704162005
H           1.01600108901784    2.40494339650755    0.97291411970841
H           0.97178361235307    0.86107139882301    1.20972878354056
O           1.84163393510464   -2.27412738248516    1.39080264035756
H           1.94976010923459   -2.22199697793511    0.40609574616720
H           2.66054044027980   -1.94989241046763    1.76906844079705
N           2.00210960785991   -1.82383304618166   -1.26822177714151
H           2.63874829202267   -1.08340591726327   -1.53956861770452
H           1.06129224703025   -1.45538217307731   -1.39631445614609
H           2.12063412900943   -2.58652034322373   -1.92364878530505
