    26
        -50.46898403  Gyration_radius:  2.47114696257 Dipole_moment: 3.722
 S           0.17703474208581    1.17444400358334   -0.73099394719562
O           0.08235452684996    1.02042954622379    0.72534652275117
O           1.47026560912744    1.63932224154025   -1.15523068809383
O          -0.18169797373552   -0.11254544949481   -1.36528839936304
O          -0.86301683873012    2.22333536514988   -1.17926744361424
H          -1.73340600677471    2.00930171235138   -0.74399503510789
H           0.42626400972423   -1.25766606055191   -0.54338096942689
O           3.66855502515909    0.26809972446897   -0.81827766531672
H           2.86346447575146    0.77414654083216   -1.07851915278023
H           4.39854491394618    0.88331628677791   -0.90456253393939
O          -1.27901291160598   -0.96979768333067    1.72511385776536
H          -0.81254899171166   -0.15863221799079    1.39072030414485
H          -1.60999471879294   -0.73961286455267    2.59390684237311
O          -3.19638003593557    1.58202689948626   -0.24498614911970
H          -3.84229667618783    1.92219801859247   -0.86685619388133
H          -3.13789854127184    0.60173211468556   -0.40379448057910
O          -2.62046572024635   -0.93508523652834   -0.67748326440683
H          -2.36842298553244   -1.16435394485835    0.23151986329374
H          -1.77678399817267   -0.69239908333647   -1.11219600450466
O           2.33796035578010   -0.26431752976784    1.41815804020322
H           2.99608070366311   -0.05580690455086    0.71747958446606
H           1.63379708976853    0.40860818625444    1.32878094693823
N           0.76534753835656   -1.92705491220772    0.22192904149715
H           1.53383572798774   -1.37803811790543    0.75860624034804
H           1.09256437190749   -2.80791810208589   -0.15831752983643
H          -0.02414368141015   -2.04373254279185    0.87158819339471
