    26
        -50.44437480  Gyration_radius:  2.55698973549 Dipole_moment: 6.199
 S          -0.83618241947714    0.48120443583606   -2.37825982157303
O          -1.11838865165071   -0.57720948261460   -1.42292676925848
O          -1.95984493762522    1.03918807146853   -3.03386326324475
O          -0.00181519567670    1.56188054407430   -1.64995038682406
O           0.19605659425852   -0.04078500232859   -3.39731804809263
H           0.87948845221975   -0.50176274181777   -2.83624929425105
H          -0.55767346462435    2.08902375738740   -0.97937489138739
O           1.46786284448315   -1.22610306424519   -1.49185113357915
H           1.84675759269224   -0.62994500744967   -0.82173803919210
H           0.53582990937462   -1.32014950438237   -1.23640979064821
O          -1.25076366165369    2.82373025577415    0.16075584398355
H          -0.86734200217202    2.30518335144826    0.92799760927227
H          -0.90409390420915    3.71537604997542    0.23075431877191
O          -1.80686808269258   -0.76051911218209    1.13251182812807
H          -1.58874000821406   -0.70261341751748    0.17775087593032
H          -2.74289643199380   -0.56351737058902    1.19658781011290
O           2.06447103533853   -0.00128859945399    0.90682315648385
H           2.92760927598055    0.05387604589392    1.31837764198163
H           1.63807507105067   -0.84587785475596    1.23114101576496
O          -0.16102019885830    1.27575341099578    1.93829780074592
H           0.68254514449826    0.99016638870486    1.54508092890285
H          -0.76211920755310    0.51640662783109    1.82075244260809
N           0.75592531143981   -2.21385804298766    1.62986473635283
H          -0.20821337903311   -1.89477604975532    1.58447110526974
H           0.89452119907881   -2.65218083792739    2.53157936438142
H           0.87681912501631   -2.92120285137885    0.91519497935545
