    26
        -50.46949753  Gyration_radius:  2.56216494103 Dipole_moment: 5.902
 S           0.24261949838936    0.36411420224795   -0.34921259868939
O          -0.00745550274791    1.28513156377539   -1.42768300132431
O          -0.60685767411169    0.64233071821043    0.82535860038650
O          -0.11606963690341   -1.07717185414249   -0.81151108256914
O           1.64224041074143    0.27974285484335    0.05410646695454
O          -2.72490202863115    1.42788696986190   -0.59854901398142
H          -2.02906920088397    1.21549230069196    0.05038317158932
H          -2.30462597435211    2.02941936190037   -1.22004365552593
O           2.64837068511515    1.13842795904929    2.34611153902339
H           2.33440600196176    0.99230845055901    1.42547540392642
H           3.57900677261549    0.90704612836501    2.34500095824730
O           1.63195572355583   -2.16303253730980    1.04604798073493
H           1.02364298210016   -2.63526193800764    0.47082994318134
H           1.80333452620960   -1.31930493448901    0.56970978312885
O          -1.01043517305917    0.55053922253538   -3.77837470537407
H          -0.59963955219767    0.93016023581255   -2.97337276005820
H          -0.28778713979548    0.23565347889223   -4.32275917466982
O          -2.36616794515870   -0.85846053297207   -1.92488438081922
H          -2.07278017395847   -0.48537081738662   -2.78031750852656
H          -1.04636362097461   -1.04760642575271   -1.25362674090313
H          -2.73512199533004   -0.08919023821076   -1.43229939220334
N           0.58724285839928   -0.48031446356379    2.79347624658563
H           1.40568053419463    0.15811818542331    2.93123905211021
H           0.94951268757678   -1.34552041478538    2.31442479908049
H           0.08062835869739   -0.66844272085944    3.65100943584794
H          -0.02136544144156    0.01330524532831    2.04946066382401
