    26
        -50.46930434  Gyration_radius:  2.46937548671 Dipole_moment: 3.230
 S           0.33240400561309   -0.78108533308458    0.10934681491668
O           1.15103393775481   -0.60148802572185    1.30466999540408
O          -1.05181662498938   -1.06414605302401    0.42296560914801
O           0.44066170413064    0.40101525349048   -0.76776971606970
O           0.86522890361214   -1.99715048157398   -0.68658977667821
H           1.84555790411691   -1.89169403873403   -0.86347111005527
H          -0.62084537896003    1.40768948462058   -0.21624022040686
O          -0.61736211344461    0.80290920348707    2.66151487614995
H          -1.24771536784152    0.13536604596340    2.94227595523704
H           0.13022185783963    0.29345542369022    2.27259475036098
O          -3.37090703318462    0.27904505739865   -0.32420934003118
H          -3.10297829607311    0.02454152426742   -1.22780434480973
H          -2.98076151715165   -0.42061158758282    0.21921462007121
O          -1.71488395608943   -0.75674480473257   -2.20770039237079
H          -1.42845056265417   -1.15908673297942   -1.37293519730608
H          -0.94789330792052   -0.26631422800926   -2.51401563305285
O           3.41262262721581   -1.60880873295386   -0.97254614453060
H           3.87805188515719   -2.12407514783147   -0.31014728987625
H           3.45229315988640   -0.66548726567779   -0.67198986467281
O           3.01622553914657    0.79805830474487    0.03642855399779
H           2.31745685044411    1.06416304864109   -0.57588032844422
H           2.51894441388563    0.37712631773627    0.76270176382082
N          -1.38987682698139    1.87436007106192    0.35010691534517
H          -1.16925349640830    1.61614331662455    1.34941520553722
H          -2.29590466922765    1.38470867895361    0.07125496057626
H          -1.42205363785411    2.87811070144873    0.20880934774541
