    26
        -50.46930458  Gyration_radius:  2.46896968039 Dipole_moment: 3.229
 S           0.80855890819190    0.21525255294413   -0.17807268746750
O           0.96566033782044   -0.27528938545388   -1.54378808481703
O           0.21719579772616    1.53534150419598   -0.12789286625698
O           0.02284536575436   -0.74313085315256    0.62335087840102
O           2.20552313884710    0.32958225832859    0.47905612912332
H           2.69726366448009   -0.53952355316706    0.40039130461273
H          -1.47005555505063   -0.37447836279179    0.34396322866982
O          -0.05531969893850    1.31222229313756    2.58219338962018
H           0.32203734177801    1.49686018613024    1.70812115773909
H           0.02311456029338    0.36025331871008    2.68270538140853
O          -1.35946035250233    0.59247447743589   -2.43022906568846
H          -0.47048906020346    0.21633998521203   -2.23627679356163
H          -1.20920693688768    1.53576332521340   -2.52776421621322
O           1.04701911687972   -2.82496750375142   -0.81075825508399
H           0.51688850639261   -2.56224415493205   -0.04666864355966
H           1.01259769044717   -2.03369468257550   -1.38062319962087
O          -2.08126740052141    2.42062692434464    1.15251830988138
H          -1.35637012612167    2.62097990767670    0.54235842772075
H          -1.61094752968963    2.16882693813047    1.96955456647534
O           3.36622529695676   -1.95858570373593    0.10522566869223
H           3.96064410242884   -1.88322017859798   -0.64437273356494
H           2.58007540423818   -2.47179141582021   -0.21139515069132
N          -2.36046158582574    0.08056774626124   -0.01700529969646
H          -2.43475725126034    1.01761343360506    0.48783651896189
H          -3.17735280157245   -0.50615591680382    0.11317750809519
H          -2.15996096354583    0.27037685950437   -1.03560546307948
