    26
        -50.44897850  Gyration_radius:  2.4386151954 Dipole_moment: 2.693
 S          -0.41708292161941   -1.58627314102773   -1.35509626603457
O          -1.34973695609324   -1.22794121119280   -0.30982358342684
O          -0.78936050130199   -2.66863957593211   -2.18602313020099
O          -0.11743274719709   -0.33835771752310   -2.20497775780528
O           0.95960126979702   -1.86135962451065   -0.66919685624654
H           0.86751743261766   -1.82772255244550    0.32505546243103
H           0.70126581448274    0.14006553715354   -1.82260781027826
O           1.41316759981612    0.89983357017348    1.29599553619578
H           1.44252200875767    0.01645767325189    1.68293956144242
H           0.45393456623816    1.13379270763012    1.23985981413727
O           0.78897937857436   -1.77065626231848    1.91912523251914
H           0.98433348558275   -2.62157401188286    2.31520665046797
H          -0.15480652929069   -1.54752848432115    2.17154451910808
O          -1.70528588019314   -1.15049689976977    2.37406137060459
H          -1.75488967601810   -0.18782026796085    2.41212414752268
H          -1.94599442209175   -1.37473132490657    1.46141244232646
O           1.94664324829291    0.76726802661172   -1.23672351947897
H           1.79551410680475    0.88077995466113   -0.24859470861134
H           2.63469903303306    0.10395882921037   -1.32415134642166
O          -1.16384860814147    1.23446813840276    0.78623269444220
H          -1.31585209167993    0.39035317875020    0.32358063608962
H          -1.09366832286321    1.89780771315757    0.06532174368953
N          -0.64262929370301    2.61752752562077   -1.50359806846144
H           0.36920324418341    2.67608336783876   -1.50598126209779
H          -1.00813169136753    3.50275349856542   -1.83092129798017
H          -0.89866155680120    1.90195134273560   -2.17476420414312
