    26
        -50.45147870  Gyration_radius:  2.46539821395 Dipole_moment: 6.103
 S           2.23234890241145   -0.41200127548429    0.77626255220713
O           1.49118681191982   -0.94446353214456   -0.34805572086666
O           3.63898541292908   -0.36097432414971    0.62569233493505
O           1.64731373549427    0.99190452289080    1.10727695118163
O           1.84510089551505   -1.18781315767768    2.04464618610694
H           0.85650514834519   -1.03672805675268    2.13715759594812
H           1.39589448610532    1.50975672602529    0.28054555616271
O          -0.79783055208107   -2.33127480090354   -0.05295476859975
H           0.09721725773112   -1.98044998552016   -0.21883813311723
H          -0.99555751323814   -2.08258784985384    0.85734561305298
O          -0.66977513976458   -0.67527862404400    2.22833777642278
H          -0.96049387498490    0.06880510549191    1.59029016322286
H          -0.81281273243698   -0.34100238119773    3.11544417777818
O           0.35043549536979    0.27050282470612   -2.47183646147688
H           0.87480090138941   -0.32269065795533   -1.90724502202583
H          -0.57748182783457    0.00791531027207   -2.31226503280282
O          -2.08570297509628   -0.67927679227955   -1.66563000746024
H          -1.66692818922840   -1.36417618688347   -1.08135704729696
H          -2.61496997319236   -1.15846997125699   -2.30430276167669
O           0.92158350735080    2.29506271690308   -0.97992813018869
H           0.66087558426894    1.57343997939145   -1.63496167540399
H           1.66465552880843    2.75692051500250   -1.37224262952610
N          -1.53157828629231    1.17738783146594    0.58957911973369
H          -1.87520337682127    0.68023275599740   -0.22793377572024
H          -0.79725887166379    1.80246650959999    0.27785565012769
H          -2.29131034500428    1.74279280835601    0.94711749928299
