    26
        -50.45147869  Gyration_radius:  2.46503360747 Dipole_moment: 6.103
 S           0.64051855889315   -1.00624971441428    2.08043452879166
O          -0.31938277536478    0.03332466316466    1.77230151637626
O           0.36621914572804   -1.78443407392488    3.23069490530005
O           0.79362763790952   -1.90015595463343    0.81563450580037
O           2.04359182471673   -0.38509763966743    2.16108334429871
H           2.19415727596115    0.00856640855152    1.24956163868887
H          -0.08097716628296   -2.04478599763519    0.33663102069700
O           2.35501316689023    0.52028172811104   -0.22760225387238
H           3.18729192339088    0.16503879854340   -0.54427673898620
H           1.63456393565665    0.17899481850195   -0.86752946102569
O          -2.50374476606033    0.02862547976794    0.18651603646733
H          -2.22738142814615    0.71756823069250   -0.44931187749399
H          -1.89845997239914    0.13221969151880    0.94055944470580
O          -1.40555482650053   -2.21125647812598   -0.46693334511712
H          -1.92628829262968   -2.92246623795398   -0.08961685127662
H          -1.91360930501550   -1.35994883630454   -0.28003136697797
O          -1.35476930781704    1.98228603981472   -1.34695894211030
H          -1.86145958859196    2.77670605070056   -1.51933756229005
H          -0.70732320305980    2.21501673477740   -0.63099903446377
O           0.38371633878709    2.35747654799135    0.60877873117597
H           0.08938868006093    1.61538964271425    1.16947412178403
H           1.25620106503536    2.09655793895223    0.29209078430478
N           0.52310411725985   -0.24530779433781   -1.93634996321837
H           0.84930061786784   -0.36187959660376   -2.88753992985222
H          -0.17401502777168    0.49470329792967   -1.93782248011153
H           0.05627137147373   -1.10117375813605   -1.65945079160365
