    26
        -50.44784941  Gyration_radius:  2.53792373444 Dipole_moment: 4.233
 S           1.99223116957678    0.85084505908374   -0.93175640664316
O           0.69586356714671    1.46764573925651   -0.75616091079437
O           3.04515470303167    1.40206557464921   -0.16138239583142
O           1.82667133733247   -0.67401681419167   -0.65037805006493
O           2.34829560502392    0.82852178891288   -2.42387035721088
H           1.63181069713140    0.27968523929504   -2.85940494929468
H           1.59184589757816   -0.82551584629367    0.32226887503299
O          -2.72225738581667    0.38934882362169    1.17561225956893
H          -1.89264242230624    0.85743459893304    1.47141836800950
H          -3.44977644377216    0.80870837547655    1.63497238058388
O           0.47996767017257   -0.76747307754335   -3.22902821883024
H           0.82038397116795   -1.58749410452178   -2.86107434898667
H          -0.32000641457876   -0.55637218494549   -2.71409059205140
O          -1.29515884875192   -0.18359874100815   -1.25338250386424
H          -0.60440671708892    0.47880129013512   -1.03410593513797
H          -2.08874303636499    0.12729139851349   -0.79809013356016
O          -1.23991640260691   -1.89857692352569    0.86339356608910
H          -1.91398722381865   -1.31862150082704    1.25360450250535
H          -1.15798813549222   -1.54807268000293   -0.04363692499399
O           1.08223288001362   -1.16268090359637    1.74450039471073
H           0.16252472966734   -1.48220227672213    1.48809600344329
H           1.55605198778997   -1.93086417048241    2.06941590372800
N          -0.40765296297981    1.52666377241420    1.90801445594487
H          -0.32430765382248    2.36569240617980    2.46860592686484
H          -0.00782394596677    1.73163203288685    0.99380570497410
H           0.19163338773362    0.82115311435198    2.32265339580849
