    26
        -50.45374485  Gyration_radius:  2.44996989438 Dipole_moment: 2.510
 S           0.66222813842266   -1.07232113061878   -1.31490689353283
O          -0.76403120401087   -1.14081179335278   -1.10764204313775
O           1.06625232667893   -0.69379545800278   -2.62903319553618
O           1.24587738298041   -0.08118087646592   -0.26914888259293
O           1.33410498389689   -2.37953174643852   -0.91249815291458
H           1.03630172649696   -2.57897603123603    0.04378235413259
H           0.65224568755932    0.75749447818768   -0.20865477782713
O           0.64604467522893   -2.75439608742480    1.49380481051259
H           0.28946692548582   -1.92336561729115    1.92577731453436
H           1.40110523756687   -3.02443912258508    2.02066230831318
O          -0.22833914764408   -0.56482829338259    2.60317868811665
H           0.41820796858492    0.16686512893694    2.56747107163593
H          -0.98710016502099   -0.27755172952721    2.06872625334514
O          -2.12850109278831    0.12789977684357    0.71859972688569
H          -3.02917451411183   -0.19490606417443    0.77014699544151
H          -1.67642126180949   -0.41603512449176    0.02953374558254
O          -0.27709062076949    1.94033263335252   -0.13584361007446
H          -0.46174054513058    1.98933969918158   -1.11950676041096
H          -1.07195865021104    1.54403521341109    0.25925385578768
O           1.50869785002761    1.49374415275680    2.09254679360848
H           0.96126012037497    2.07289755829900    1.54939819832475
H           2.07736059531856    1.02060064978578    1.47820632557598
N          -0.65519242526248    1.60626996916335   -2.72437937312665
H          -0.01233676429371    0.82313512977689   -2.84356161359512
H          -0.42496157043657    2.30316833711055   -3.42234071472140
H          -1.58230567712734    1.25635633818541   -2.93357243432566
