    26
        -50.45449949  Gyration_radius:  2.4326379572 Dipole_moment: 5.472
 S           1.36953376364733    0.23190166412089   -1.47538005317281
O          -0.07191636515584    0.34849233709930   -1.54085608619817
O           2.08675188632885    1.20800447941786   -2.21873340719381
O           1.79178015891137    0.24773279650961    0.01190035716680
O           1.77178562941852   -1.18945539501923   -1.89450374987148
H           1.16073145623343   -1.80553068533215   -1.38227940364996
H           1.34749664064715    1.06657305533056    0.52016131605214
O          -1.32343616289372    0.37055220031282    2.03188673427520
H          -1.74974634287450   -0.04442809549872    1.21705155925680
H          -2.01977380919126    0.51915196642667    2.67233624162338
O           0.28407064428201   -2.70819411986647   -0.43499344090511
H           0.37103166323973   -2.29411584566615    0.46953179014186
H           0.71388034038797   -3.56446340190193   -0.37742417507361
O           0.58818251737060    2.09412937635739    1.15695829673521
H           0.27635763438612    2.61008958772252    0.37584605971119
H          -0.17903749816242    1.60153880150875    1.51510862415449
O           0.69048091143123   -1.50448559826054    1.85963540200017
H           1.38715266715351   -0.93851869921239    1.50174552423046
H          -0.03740641926567   -0.89606329661952    2.08201977872613
O           0.01230003593615    2.99757676428358   -1.26993228294927
H          -0.24770369691865    2.09420481034597   -1.52193072392243
H           0.84270180012630    3.14550317996052   -1.73264192066177
N          -2.25112846054776   -0.79158749229091   -0.13269347862884
H          -2.10238398784779   -1.79360139000760   -0.13660876705697
H          -1.55028398499813   -0.39574319173740   -0.76026332178823
H          -3.16142104175470   -0.60926378817112   -0.53594086285028
