    26
        -50.44875135  Gyration_radius:  2.69356446032 Dipole_moment: 7.545
 S           1.14179219969186   -2.38667296982353   -1.18643597337169
O           0.88697543232631   -2.38648366339587    0.23734254432613
O           1.08386830357087   -3.63368569216319   -1.84929942305391
O           0.15377567960487   -1.35518691660411   -1.81971179947504
O           2.50529872450135   -1.72025555536860   -1.46334486793205
H           2.57670060738587   -0.84862040969285   -0.97299492083030
H          -0.69184330090465   -1.42354953180266   -1.24307670241990
O          -1.01202336883034    0.83658497321217    0.84059574438879
H          -1.74971634944253    1.46269454735193    1.01093048094159
H          -0.56034414885340    1.16821581774193    0.03095596718554
O           1.27448034871032   -0.26809421876623    1.83507879294151
H           1.14888260379551   -1.15863668885851    1.45545070976521
H           0.42189175339598    0.18759245305283    1.70952192169414
O           0.37154074526091    1.41867889861640   -1.38410472614387
H           1.28596255022107    1.38299672978952   -1.07040127834717
H           0.23380562770071    0.59114419432627   -1.86437053059562
O           2.70091320513399    0.50694667583707   -0.15216124708393
H           3.61423757406463    0.64473373813816    0.10465639166162
H           2.19335298586644    0.27645553673890    0.69421946334030
O          -1.67421499324946   -1.53881909407621   -0.09818010194523
H          -1.12886998482386   -2.14661533878155    0.41779770310947
H          -1.55395194866784   -0.64765622444471    0.32360921375098
N          -3.09581786178969    2.58907918362647    1.10814125755718
H          -3.96818598029002    2.09038852746480    0.98388898071671
H          -3.01696982847850    3.27124156810136    0.36388250822800
H          -3.14154056589859    3.08752346977632    1.98800991160327
