    26
        -50.45426807  Gyration_radius:  2.45003774965 Dipole_moment: 3.957
 S          -1.63506340807764    0.04821988025414   -1.02062272073015
O          -1.27950991336830    0.33395791679753    0.36333649272680
O          -2.15598056023402    1.18444045452630   -1.70166698335948
O          -0.38069052678098   -0.51188728408909   -1.72606222345143
O          -2.59121119805570   -1.12967214239174   -1.08440227892776
H          -2.04047391077793   -2.00673304017402   -0.99018245810915
H           0.41675207095040    0.14797141393471   -1.63235078896983
O           0.45271120457623    1.48410620503334    2.19073901911118
H          -0.27934073671172    1.00755503935561    1.77046757054444
H           0.41406927719259    2.37060086057999    1.81724313924992
O          -0.37350497058368    2.82609587741889   -0.26960806153382
H          -0.87575584256540    3.23631965304235   -0.97822369860224
H          -0.88664022460426    2.03408981876628   -0.03510638592129
O          -1.06414557632484   -3.11999470880959   -0.90479645121255
H          -0.52196522310280   -2.97743620720724   -1.68558242006171
H          -0.50082505122560   -2.81879953760158   -0.12148203294355
O           1.46723164277500    1.13050551906454   -1.30508246487423
H           1.92617761639101    0.74073584167397   -0.52758580682377
H           0.95534250916038    1.89464261855581   -0.96676808794463
O           2.45745065824626    0.18174796809107    1.01266659606698
H           3.30412737145522    0.50494734919901    1.32395179317548
H           1.76566744025697    0.63040255953048    1.55688893812143
N           0.27582407782636   -1.98954168780806    1.04496858376974
H           0.22816890846993   -2.35753697241499    1.98643713146184
H          -0.30817027760868   -1.15674602496835    1.00412927526436
H           1.22975465274752   -1.68799137033134    0.87869432401666
