    26
        -50.46631274  Gyration_radius:  2.39728503459 Dipole_moment: 8.093
 S           1.53427412563230    1.14978613517831   -0.17562182667961
O           0.62536238534818    0.97128927190084    0.97742729673264
O           2.90693551522425    1.05975686241738    0.21814136049971
O           1.18447064180939    0.13607757347814   -1.20082841891144
O           1.23203220221100    2.52988332867558   -0.78781043359278
H           0.25303657186911    2.52162518258521   -1.00656955607733
H           1.06024649092796   -1.17070324987255   -0.53666236713740
O          -1.30944364327270    2.29907312014136   -1.25362544921329
H          -1.72819628541043    2.03750008757721   -0.42188587925149
H          -1.38577530485229    1.50768734211528   -1.82929171024412
O          -1.91150886677201    0.81189557319253    1.07900843427088
H          -2.16173947627746    1.06157733821010    1.96973322900145
H          -0.91511664733641    0.90492640993915    1.04121536591733
O          -1.83007735211561   -1.69326288801410    0.17899174108314
H          -1.91761330135459   -0.77433544421666    0.52928417270086
H          -2.64541645132618   -2.14814645321297    0.39342237645466
O          -1.23512158520465   -0.18903709320185   -2.28946444269973
H          -0.28629589528350   -0.09739615336821   -2.08030980180944
H          -1.58777558608763   -0.79002640670052   -1.62237614916899
O           2.16545541420197   -0.82402473648665    2.08433330278313
H           1.52971530040734   -0.08752316406987    1.95855151328043
H           2.96808761737413   -0.45754219872181    1.68920285433440
N           0.89990606685866   -2.02928225862748    0.11413005692133
H           1.26396989869610   -2.88165619422644   -0.29727283717994
H          -0.12184690763302   -2.08994017820847    0.26454742651983
H           1.41243507237355   -1.75820179645421    1.00372975148497
