    26
        -50.44616385  Gyration_radius:  2.43489149744 Dipole_moment: 4.390
 S          -0.88296935809669    1.52627485260011   -1.15119103328046
O          -1.35490937752422    1.16333569542280    0.16525034697585
O          -1.16976997163431    2.83730218607555   -1.59855383651364
O           0.66764159908506    1.28818523948247   -1.15312040892981
O          -1.36921304819805    0.48836446617707   -2.16986020696344
H          -1.41752728953277   -0.40170274674391   -1.68568823370744
H           0.98329920084125    1.21047539549119   -0.21065806536021
O          -0.55184232058348    1.66786297825253    2.77625772124988
H          -0.92012107146400    0.78456468128649    2.95908743020246
H          -1.09998741448444    2.00897436845951    2.05782635451777
O          -1.44871396601467   -0.82795452399777    2.03770419112646
H          -0.65515213842449   -1.34334859185885    1.85609432631125
H          -1.51528640140538   -0.16969265717386    1.32474377491595
O          -1.43361755106243   -1.67308567360421   -0.82757095017499
H          -0.57487213609805   -1.71965369498007   -0.34070696294939
H          -2.11955913124507   -1.63448507317094   -0.15329949089738
O           1.49396980193910    1.04007934294507    1.29567570963330
H           2.23163396949033    1.61320654428024    1.51156243523029
H           0.74183896875626    1.29706900353581    1.91144390258785
O           0.91286487738099   -1.59060196377256    0.45918049170513
H           1.37501059410121   -1.66458808171738   -0.40765128150563
H           1.21870177901435   -0.75374003405784    0.83582685394001
N           1.72024946374411   -1.37511329347057   -2.11397640645253
H           2.62163325286986   -1.54550520073527   -2.54167210305289
H           1.52911014221826   -0.37928646643215   -2.16618594885058
H           1.01758749634385   -1.84693674227367   -2.67051859977039
