    26
        -50.44846759  Gyration_radius:  2.45310926846 Dipole_moment: 8.275
 S           0.09500000639877    0.30927148188550    1.72406477229889
O           1.53807277061653    0.34359930819226    1.85778669997672
O          -0.61527455436341    1.27122509923083    2.52187053107489
O          -0.21265488010888    0.63090215356794    0.19250760678741
O          -0.43824603226222   -1.05556506801833    1.85223387964560
H          -0.59099456327233   -1.65074732680963    0.60120127139353
H           0.18423827748958    1.49884338181252   -0.03227638783524
O           2.91458506667896    0.59950780068946   -0.27443643139322
H           2.39710994724988    0.47163356725103    0.57534902317455
H           3.83003319119906    0.66698407443755    0.00234227232818
O          -2.86498067213222    0.27594894126927    1.61683644716553
H          -2.72562258110797   -0.56566991181247    2.06166576995155
H          -2.11961467126821    0.82524275128348    1.94413885003218
O          -2.78409059231051   -0.49285752749429   -0.90214991547082
H          -3.63945721937713   -0.91804657544438   -0.99091489943146
H          -2.79478958893218   -0.04418110417565   -0.01436865339236
O           1.22405457983250    2.67311570854966   -0.70448225548712
H           1.98699686789604    2.06741606647296   -0.61496058036969
H           1.07304697046640    2.80288314827594   -1.64251292644983
O          -0.77078906609392   -1.99419977589675   -0.39441861896064
H           0.06395541157547   -1.67609249621632   -0.96033260495534
H          -1.56042922162043   -1.41687592985732   -0.68691476956925
N           1.24452465144902   -1.24794149884785   -1.79177869788544
H           1.83262255890724   -0.63397084689606   -1.22732957051851
H           0.92100372466134   -0.72123100979313   -2.59296836495585
H           1.81169960825788   -2.01919442162835   -2.12015244713765
