    26
        -50.44730757  Gyration_radius:  2.47474178022 Dipole_moment: 6.743
 S           0.90657902478899    1.08782408182172    2.03233601887516
O           1.90904811768704    0.24732151238622    1.44158357956761
O           1.33881076016758    2.27217042933657    2.67949187972416
O          -0.11688892233343    1.46564545746773    0.88282665771186
O          -0.00629963566109    0.27187732906210    2.95435049442580
H          -0.26944314368028   -0.55574538603044    2.42769414873847
H           0.37356442022239    1.56348112945509    0.00144315364331
O           0.28760880883547   -2.10496274201286   -0.97790395281521
H          -0.29656414056708   -1.42283131166559   -1.42739593649564
H           0.10283483681932   -2.95137090702587   -1.38632081456952
O          -2.58496338412625    0.33080704715553    0.63348806827578
H          -1.78140587799740    0.87216998383811    0.73948160124819
H          -3.18370063805607    0.59091525714938    1.33584839074011
O           1.11768838825664    1.65826189669121   -1.34778666026524
H           1.73351339727244    2.39227417096468   -1.30491054370711
H           1.68440941351299    0.81901609370166   -1.33544384951962
O           2.50362884353384   -0.49389723987250   -1.04778013325098
H           1.85027481761844   -1.21235221549212   -1.11168733782283
H           2.57109233590979   -0.32311981099098   -0.09137713725980
O          -0.82576925931106   -1.62124581560289    1.46389677420029
H          -0.25878171034667   -1.83604575890675    0.69671341222308
H          -1.59475178307809   -1.14775010980264    1.09865874941384
N          -1.22859796752596   -0.20369066436432   -2.02749561385180
H          -1.95932977521160   -0.01803606034268   -1.34878330655852
H          -1.65971935863226   -0.28329826599809   -2.93950279055549
H          -0.61283755822750    0.60258190865776   -2.04142486208701
