    26
        -50.44730755  Gyration_radius:  2.47476787705 Dipole_moment: 6.743
 S          -0.65566176241628    0.83874429393234    2.23663030836245
O          -1.73435606095344    1.03021178414046    1.30919651835520
O          -0.98921540667951    0.55540962310756    3.58448566991512
O           0.24398489362260   -0.33389923917099    1.66461015370675
O           0.33483792670991    2.00592060059406    2.16014250662687
H           0.52121592408659    2.15154003775507    1.17237651961006
H          -0.33774417497930   -1.01903161258503    1.19657731719589
O           2.64517225676385    0.07432674698614    0.43621399581963
H           1.86980118889723   -0.15516323626543    0.98045363155372
H           3.32244315860096    0.38068670634777    1.04191327974708
O          -1.22282865439628   -2.03168630534263    0.43866679852962
H          -1.81464740698471   -2.44910874967022    1.06747474422329
H          -1.80247692864921   -1.42350053782418   -0.12684163346511
O          -2.61308432055295   -0.27776967653974   -0.83953127271484
H          -1.98599974883668    0.11133600088043   -1.47395451353368
H          -2.57202192952365    0.32100238918253   -0.07259398414388
O          -0.43745699242508    0.70237719676947   -2.18747160889936
H          -0.31620694340257    0.95355143411305   -3.10375342633699
H           0.10840815396148   -0.12584515392443   -2.03039870166788
O           0.94612206378319    2.11262608012815   -0.30794767452302
H           0.29419928416606    1.72610432437434   -0.92584309727930
H           1.68041138357959    1.47386487356374   -0.26647403044361
N           0.99498554074418   -1.44801007451444   -1.60488771622367
H           1.32193642178937   -2.09911817140583   -2.30713963167939
H           0.39878774672896   -1.95597694314374   -0.95997498585356
H           1.79939440636858   -1.11859237142487   -1.08192916687247
