    26
        -50.44581478  Gyration_radius:  2.56122209716 Dipole_moment: 4.163
 S           0.11857675557567    1.32439609927889    1.85763261305054
O          -0.67804741479045    0.97288124218418    0.69328300478168
O          -0.58585942892607    1.34169929423838    3.08515081681316
O           1.33664357460357    0.36780191007805    1.88341233402905
O           0.79755710337425    2.67536159471531    1.60348028200132
H           1.44395466923591    2.54552959968439    0.83500473170072
H           0.99168210333791   -0.59458297073740    1.95140563821038
O          -1.42890588304214    0.49560510664277   -2.86273734828593
H          -1.77772485228569    1.38513849090248   -2.93883046201821
H          -1.92443165307593    0.06903474943564   -2.14110158957950
O           0.84221914190429    0.29612656097572   -1.36846717082908
H           0.23637216805515    0.40946828553950   -2.12493779562900
H           0.27871326611982    0.48700604233172   -0.58951217031093
O           0.49496436087588   -2.00911025506084    1.92152833797857
H           1.21885305377907   -2.61418993126168    2.09582613891747
H           0.19508456932749   -2.17946030009543    0.96287869896888
O           2.44119446034211    2.09020138981473   -0.27304178336141
H           3.07663341867500    1.55337547188009    0.20701156831944
H           1.93179619702979    1.46130393673079   -0.84154073270178
O          -2.56470108439728   -0.48311723552681   -0.52306423111803
H          -1.92529789021307    0.03889238854645    0.00051054919811
H          -3.41064468247213   -0.38204408813241   -0.08430743982668
N          -0.19762626119612   -2.34465914194841   -0.57656713396968
H           0.38211275713511   -1.66688256677258   -1.06661518624312
H          -1.15477813482340   -2.01102687150592   -0.64163192006652
H          -0.13834030414246   -3.22874880193626   -1.06476974006546
