    26
        -50.45019006  Gyration_radius:  2.49749162148 Dipole_moment: 5.272
 S          -0.20677871822868    1.39964340307395   -1.95970098046383
O          -1.51835821871969    1.29091202895985   -1.36116855105709
O          -0.13930377958749    1.84347628009305   -3.30031204886207
O           0.69088703235789    2.29661991131482   -1.08426427335030
O           0.48285662367727    0.00685645056714   -1.79654185959152
H          -0.27070753866534   -0.66958887078366   -1.68424878236938
H           0.60985287026398    2.05225794853670   -0.11347334949522
O          -1.50114281397599   -1.47822594320245    1.29560001347270
H          -1.78468275605935   -0.51964020277486    1.34619977943975
H          -2.10817324898325   -1.97066084796204    1.84928976927188
O          -2.09979445497952    1.06222215108064    1.24803279634223
H          -2.06889027096507    1.23695144544141    0.28834961523830
H          -1.30408990038760    1.48957862835838    1.59463307737586
O          -1.57083478941446   -1.41251434454895   -1.39584414518254
H          -2.10125119264962   -0.60861655452478   -1.49147818455271
H          -1.54393368625378   -1.60087872429134   -0.43202000414654
O           0.58117473806668    1.71624549250668    1.42566796814752
H           0.83129596324618    0.74476637545306    1.59129634468347
H           1.24433632043741    2.24387031161652    1.87357430174195
O           1.13157764436968   -0.75755221767429    1.80869794352235
H           1.70856175379146   -1.06926902465151    1.06839090065031
H           0.27020994985490   -1.18710357560227    1.67888282512570
N           2.56979380863968   -1.48886946790071   -0.35935940051671
H           2.52376069444654   -2.46487118328101   -0.62370628474261
H           3.53661695737241   -1.19657688590281   -0.42301886764283
H           2.03701703222310   -0.95903258380786   -1.04347857306377
