    26
        -50.45193201  Gyration_radius:  2.45788568726 Dipole_moment: 7.377
 S           0.48749106276148    1.78704944420853   -1.29835786993972
O          -0.85880883090598    1.62728362608148   -0.77696338920033
O           0.91328387531636    3.11639947400352   -1.52384342802357
O           1.44435280847004    1.01713745270665   -0.36282781086260
O           0.60856027323371    0.97174652677397   -2.60308298159596
H           0.33535133095986    0.02906875317861   -2.41137653902551
H           1.14399065116372    1.06628407197511    0.64133607940100
O          -1.59095772373466    2.40067583915714    1.66781090719526
H          -1.40875902578444    2.31718941054009    0.71224090905690
H          -2.47218261586970    2.04676778816967    1.80292135736101
O          -1.89242555388447   -0.76989626318619   -0.24840027185590
H          -1.51563496472669   -1.26874511816722   -0.98417202877370
H          -1.62746227479298    0.15504558274892   -0.42720835282092
O           0.04008260317798   -1.51388593430952   -2.11635342566283
H           0.33251938096089   -2.01774363997332   -2.87777954932461
H           0.68060190616017   -1.72788106058687   -1.35348833149979
O           0.66037447376794    0.98599635257010    2.00775633462607
H           0.29318719523077    0.07675461086359    2.07137015074969
H          -0.11140574496123    1.59147770945475    2.05300744366707
O          -0.50771134069224   -1.43960389114406    1.88106175133102
H          -1.10324181622115   -1.72015452327186    2.57698758435371
H          -1.07747503867416   -1.22443785713898    1.09319534279113
N           1.66200119223660   -1.90886987114188   -0.10887035421061
H           2.10429094906898   -0.99583237464721   -0.07914161431900
H           2.38143619175848   -2.61811763389967   -0.05534753401678
H           1.07854105598724   -1.98370850496748    0.71952561059917
