    26
        -50.45131471  Gyration_radius:  2.45128728137 Dipole_moment: 5.732
 S          -1.22255919105829    0.02294132806339   -1.83971714907139
O          -1.50921352829115   -0.91376159249982   -0.76686791686132
O          -2.02579494313849   -0.08419732409591   -2.99864795673188
O          -1.31805389463328    1.44585098536657   -1.27655932545469
O           0.28130872082728   -0.13666883768777   -2.20141033784205
H           0.74373882728634   -0.77996657755687   -1.58888476164761
H          -0.58866931526711    1.61305757352411   -0.54448851538820
O          -0.15613804488834   -2.12815340394329    1.22862684139283
H          -0.85658263614650   -1.91527634689285    0.58969466394634
H          -0.16270613449741   -1.38691526531324    1.85608685081811
O          -0.57042178612709    0.27607135854051    2.53016221900470
H          -0.67795310465135    0.54960124386450    3.44187643612725
H          -1.45952903873255    0.36477523597543    2.09977675890238
O          -2.76776583902113    0.53017283198827    1.08273777141045
H          -2.46764317084741   -0.09238375588067    0.39069718008782
H          -2.83568371524532    1.38259591930326    0.64472261218155
O           0.41338102081253    1.80196337559414    0.48770034552254
H           1.29557146120821    1.49634803277614    0.13665243031995
H           0.19982024352521    1.24805895362712    1.26186185196921
O           1.55765895447279   -1.82423610263277   -0.69434816235795
H           1.56972666520441   -2.66525659096267   -1.15523691294645
H           0.98405625591639   -1.96578593900043    0.11572309332790
N           2.69797785011520    0.90777234844513   -0.55463400087666
H           3.60379196094962    1.23439525455806   -0.24407715417569
H           2.60219911126271    1.12097907205835   -1.53984917695397
H           2.66948324095520   -0.10198177721102   -0.46159768470103
