    26
        -50.45377534  Gyration_radius:  2.46837048411 Dipole_moment: 3.510
 S          -0.14664776348320   -1.89082106343418    0.30429860680550
O           0.18416251090989   -1.19442009418663    1.51967320316910
O          -1.33103719265222   -2.69213759644332    0.37203145549791
O          -0.28661155557174   -0.84921576451172   -0.83766459014203
O           1.02815661164422   -2.72782322308465   -0.18019442967960
H           1.82962689428704   -2.08862757036845   -0.18778740868752
H          -0.88117010034146   -0.06654148708766   -0.53746202334403
O           0.17669378340659    1.38023733103822    1.91693283543404
H           0.20214310252977    1.58985505694818    2.85169706445071
H           0.22994140206537    0.39721127363335    1.85316544273146
O           2.06056327149646    1.39937879974729   -0.15655956254198
H           1.50598543610233    1.52889204168591    0.62669627092558
H           1.47125089432863    1.56936384653520   -0.92692077072448
O          -3.17700130464733   -0.93560482190560    1.17465266391201
H          -2.53996094750659   -1.65539899197732    0.99200565781553
H          -4.02964947746231   -1.25222701280605    0.86957113127571
O          -1.75590245666322    1.01852795224023    0.04930456108305
H          -1.17260939805724    1.36580830546867    0.75124532412496
H          -2.41284606993709    0.44579097859425    0.50344550983849
O           2.91328736831438   -1.05305968384277   -0.27068926477491
H           2.58836625760233   -0.10664029723071   -0.17379125899799
H           3.35790918743464   -1.09332712536900   -1.12006433378781
N           0.26493039027872    1.75361188387890   -2.18799855793362
H           0.35836537885712    2.34978930645706   -3.00040722316584
H          -0.58722222776240    2.00983034371982   -1.70292783766724
H           0.14927599482476    0.79754762229981   -2.50225248561560
