    26
        -50.46091513  Gyration_radius:  2.40354629502 Dipole_moment: 3.044
 S           0.61784010784077   -0.65683169835697   -0.85922104355395
O           0.92109484273772    0.22876829867240    0.26869015010033
O          -0.18163044471410   -1.79292580960741   -0.44260233609475
O          -0.04835694344052    0.12075388576332   -1.91393312697848
O           1.94903140838362   -1.19265145026071   -1.42189203051476
H           2.40552655942845   -0.34434362415200   -1.69975967380485
H          -1.28215483516087    0.78654256206784   -1.46699252067395
O          -2.05801255801109    1.20807436155849   -0.91284049249303
H          -2.37392355720100    0.36858869197979   -0.29496942028016
H          -1.56702643812503    1.83677924021198   -0.27007448622195
O           0.07156014338646   -2.76945494003707    2.07175024970646
H          -0.05201776165728   -3.71934364613780    2.06255307154641
H           0.06896661785934   -2.48603260002772    1.13825452888912
O          -2.43419533256153   -0.77213946875302    0.52601885729972
H          -1.78721321004827   -1.36397165276792    0.08695011159998
H          -1.96980323067125   -0.51914138827997    1.36989872627784
O          -0.51469117867377    2.37702851216155    0.74589250829469
H          -0.78397801101824    2.21777465558321    1.65612704992552
H           0.16590214714913    1.68853765298642    0.55771775216206
O          -0.69242371273563   -0.16329065253008    2.39468584846722
H           0.01148405097019   -0.03430918122613    1.72853098697187
H          -0.51163718469393   -1.05069804272446    2.73727544014270
N           2.57506109789507    1.25539040257240   -1.99450695281723
H           1.61339941734745    1.35424119474141   -2.30330109688537
H           3.18967659102633    1.70145680269159   -2.66307011070867
H           2.66752141469721    1.72119789385918   -1.10118199035982
