    26
        -50.46949759  Gyration_radius:  2.56260656084 Dipole_moment: 5.896
 S           0.20289288389859   -0.35423273897668   -0.38142796816530
O           0.08740307497227   -0.77855081715940   -1.75270865906701
O          -1.12987669170174   -0.65320451273679    0.36274740134567
O           1.21650572165759   -1.07184854514129    0.38428340701822
O           0.41944300963022    1.10144975637895   -0.26820470737542
O          -2.13076577334536   -1.81937555359782   -2.78593026794344
H          -2.13902538850043   -2.75632804243741   -2.58651891754886
H          -1.25082710111839   -1.48933969572320   -2.50726703627068
O           3.48810901580860   -0.05488353877519    1.28362386394987
H           3.92280709332711   -0.74690240407233    1.78537605632310
H           2.75370328444072   -0.49533712081785    0.79979875264554
O           0.19612025051925   -0.76502198359678    2.79558074728771
H          -0.75205577945994   -0.81092861807643    2.64491649596399
H           0.58728076972254   -1.08152105674326    1.94989569755036
O          -1.11086965766298    1.72853012192534   -2.36453486059750
H          -0.49207448844628    1.65494274448142   -1.61476600623783
H          -0.78358051339588    1.10014937340140   -3.01473403705300
O          -2.93722198720491    0.18758191974442   -1.17921495051073
H          -1.90557795974888   -0.30315129301433   -0.21805154283132
H          -2.45477274783274    0.91279559570622   -1.63944270452780
H          -2.94176605689668   -0.55094534759517   -1.82072280583079
N           1.43538770983852    1.44748809533983    2.05719235935681
H           1.42518359718096    2.36824150358130    2.48092619436437
H           2.40191512682616    1.06863558396111    1.92050292966162
H           0.89517733069719    0.72361184602849    2.59886116760668
H           0.99648525678990    1.43814473791969    1.06981939088768
