    26
        -50.44731975  Gyration_radius:  2.52118047966 Dipole_moment: 6.574
 S           0.41958880784355    1.19852134145654   -2.10950607756840
O          -0.82778523881941    0.70952056382047   -1.57408890641344
O           0.34901384076842    2.04130701089962   -3.24273260899205
O           1.17061883995073    1.90084509249462   -0.92437026886412
O           1.35982269981458    0.01329883701700   -2.40601293133114
H           1.40809471189769   -0.60572614559463   -1.62015325606540
H           0.42947679994271    2.39714011674373   -0.43597649912382
O           1.70163767690688   -1.52488214030454   -0.34616817237833
H           1.71847600322642   -0.84723804763333    0.39279406741803
H           2.60528894827096   -1.83332635449345   -0.44290700290308
O          -0.78022204779043    0.89849535432071    2.17027835503342
H          -1.22331466987963    0.89643601290884    3.01910993506276
H          -1.30465709945372    0.27774047727037    1.56946252891498
O          -2.06299183301429   -0.56560611040803    0.49174496146438
H          -1.71428873591210   -1.48764969418572    0.45796035332370
H          -1.76231619724289   -0.15853650211929   -0.33743533138527
O          -0.89110400490368    2.78385936059078    0.24736925267396
H          -1.46684506087307    2.31774930029480   -0.37201806498637
H          -0.88277113823476    2.23559094528021    1.06304733502481
O           1.77603793211870    0.41552328842996    1.37467524252007
H           1.86014721411055    1.12285927849230    0.72090656119832
H           0.90717649644761    0.55446386110638    1.79791285482762
N          -0.86125564885114   -2.98247857638344    0.20071535226570
H          -1.23186599237065   -3.47275459296672   -0.60308752870892
H          -0.75702224004371   -3.65016711996532    0.95378581080773
H           0.06105991610762   -2.63498555710359   -0.04530599181417
