    26
        -50.44867324  Gyration_radius:  2.53116394832 Dipole_moment: 6.581
 S           2.22927370651538    1.22928219174032    0.49605252452830
O           1.13854346403836    1.61097644974583   -0.37504619535926
O           3.14313692161686    2.23941240258005    0.87053967819246
O           1.58350170280523    0.55007932720107    1.74967393341538
O           2.99271150859843    0.04861708906104   -0.13378549189599
H           2.34806358949368   -0.62730666125672   -0.50840159328103
H           0.69922264204657    1.04134971340391    1.88085846624777
O           0.03445267409646    0.15938864346991   -2.36313643704581
H           0.42357502714899    0.87031820813164   -1.82508735229631
H          -0.92409307654151    0.13526477889429   -2.11019934407279
O           1.33072988291249   -1.64968100069639   -1.14216819312994
H           1.79149485592253   -2.19877192402711   -1.77898066832235
H           0.76332935018712   -0.99241790370170   -1.68419485840560
O          -2.04982432416301   -0.56312430741138    1.37450173274418
H          -1.23814801898904   -1.13372654134087    1.35500201215032
H          -2.53506325834504   -0.81978590137168    2.16015756912850
O          -0.64671488677721    1.72498527207191    1.63135889842076
H          -1.27154263921634    0.97355308653362    1.52007202969083
H          -0.37035656844486    1.99251646581736    0.74190674525581
O           0.23808218067489   -1.88134355676629    1.37538398953796
H           0.54759423497777   -2.01888706267266    0.46640099582653
H           0.83976195072317   -1.22500509657183    1.75369613946004
N          -2.51858612798248    0.13556745275570   -1.47811108852247
H          -2.47274555135190   -0.14713622695624   -0.50289368862383
H          -3.13394503286998   -0.50817497857150   -1.95880799503415
H          -2.94245423709725    1.05405005993798   -1.51479180860216
