    26
        -50.45206899  Gyration_radius:  2.45013030603 Dipole_moment: 8.373
 S          -1.21929156406036    0.38519095691591   -1.78825076037446
O          -1.63942590910661    0.58521194057981   -0.40070201742559
O          -1.95377730694224    1.12609287879221   -2.75458688666907
O           0.31334730189089    0.84507273070442   -1.81929448057461
O          -1.10978747928986   -1.06097474865476   -2.07273955695051
H           0.21613869048735   -1.44735146094555   -1.80676871862548
H           0.36340169330853    1.65513421559475   -1.26653768303670
O           1.08800767555320    1.04356325919831    1.99341843760306
H           1.45601123040744    1.33225098062556    2.82998714881374
H           0.09658268072031    0.99366204015291    2.13204860640384
O          -1.49920503390093    0.87120311627041    2.23747813800800
H          -1.76560747298113   -0.04216745227178    2.38288710122599
H          -1.69052292916303    1.03165361047033    1.29348606180485
O          -1.46889697257188   -1.73739679993307    0.73911743605932
H          -1.74824377410417   -2.38616174182378    0.09085980422367
H          -1.57427676167699   -0.86693382825163    0.27401745814166
O           0.83648073609531    2.78033780388956   -0.10821743723200
H           1.69283369425610    3.17497189929246   -0.28194076985176
H           0.94053653441351    2.19650297515752    0.66966601949807
O           1.16243007618624   -1.54903058929297    1.05996403563563
H           0.19029120814255   -1.71789626479475    1.08832990711428
H           1.26782240902468   -0.63593436552147    1.38344896190070
N           1.28758683663547   -1.62874536391610   -1.54589620990138
H           1.62957410529001   -2.49931520817323   -1.93783863103480
H           1.34177707248194   -1.62330953961128   -0.47111986949289
H           1.78621326879605   -0.82563104450551   -1.92081608528947
