    26
        -50.45018959  Gyration_radius:  2.49716466882 Dipole_moment: 5.269
 S          -0.79656750971135    1.61463975038021   -1.60880658176754
O          -1.28762382435241    2.01477746641821   -0.30915208804705
O          -0.81373838231160    2.58484728408334   -2.63702837936220
O           0.64565812464564    1.05235491684293   -1.39492377654419
O          -1.55316146267635    0.35898174759080   -2.08572634825045
H          -1.62703246236832   -0.32090727015966   -1.35003342169739
H           0.98286884343082    1.46333799178269   -0.52574848370095
O           0.50706791749069    0.00471566555984    2.42084044669071
H          -0.46744797947933    0.14682012948552    2.24226128625959
H           0.60815258498040   -0.02065861952291    3.37304544020200
O          -1.97740371043102    0.41990065969200    1.73502226333144
H          -2.20411920627707   -0.36380494608368    1.21512367297970
H          -1.86490757929667    1.12565576075429    1.07041485930661
O          -1.75751260425489   -1.46568916857570   -0.27555643047400
H          -0.84173413280710   -1.75146059564820    0.06127274228229
H          -2.14467280926820   -2.23931831815991   -0.68836198607581
O           1.15332442966712    2.09605760401361    0.85122594462121
H           0.27781570989008    2.50724122311050    0.81783451238221
H           1.07221624092270    1.34747869753096    1.48219880463106
O           0.55797929080956   -2.10637514709372    0.61697394951043
H           0.70758938875250   -1.44242275942262    1.30997124341596
H           1.22566687426396   -1.92223222717054   -0.08908157493941
N           2.26512842380064   -1.40406852122682   -1.35661178399287
H           3.21258469619630   -1.18032246612504   -1.07921172489187
H           1.80555058505623   -0.53439593187872   -1.61211655629274
H           2.31431855336418   -1.98515290618121   -2.18382602957934
