    26
        -50.45839184  Gyration_radius:  2.47582377483 Dipole_moment: 5.588
 S          -0.82900421193577    1.49777861994951   -0.05350481750496
O          -1.84557645331294    0.48613915965386   -0.25039819847200
O          -0.61184089926144    1.83632325807797    1.32316719508422
O           0.47128512962526    1.02268050089829   -0.69523299179444
O          -1.16952139091122    2.76196669757718   -0.83956043951334
H          -1.03023154708686    2.51458391561750   -1.81306040329794
H           0.61710249048381   -0.07292303193389   -0.65108958870546
O           0.12576420524099   -0.13016413388955    2.91667977253902
H          -0.10162461462012    0.64785903352264    2.35874860219644
H          -0.21595024985911    0.06866353594244    3.79051232121210
O          -1.22025728593498   -0.60465729927908   -2.60947218809973
H          -1.64882257427731   -0.32944791941211   -1.77771244020016
H          -0.49553170097773   -1.18409036595348   -2.35382279190032
O          -1.19721000243148   -1.74285801602683    1.11065818479079
H          -1.71474754245391   -1.02592848730874    0.70580958159643
H          -0.78126388052412   -1.35008086369591    1.89802474878380
O          -0.60934557406191    1.91169445637148   -3.17765888615162
H           0.35108676789698    1.90339382103959   -3.15176681211655
H          -0.88975880585749    0.96351918409301   -3.13756443771217
O           0.78893957417173   -1.40968622450908   -0.53528054800697
H           0.00672543681387   -1.70268378802525    0.01830887349599
H           1.55409595088384   -1.43515282648534    0.11557769988056
N           2.49662799997713   -1.21888999743143    1.46442833977895
H           3.20850913770746   -0.50983409924983    1.34512808570476
H           2.93026589034434   -2.03652723971210    1.87361875512734
H           1.81028415029888   -0.86167790976672    2.12546236317719
