    26
        -50.44368504  Gyration_radius:  2.52799220597 Dipole_moment: 7.170
 S          -0.60442846741185    0.34929410325506    2.31838165094035
O          -0.51536231542260    1.15196258496983    1.11398947535048
O          -1.63105467853892    0.69087438673648    3.22735014994623
O          -0.71267448745171   -1.13855369004372    1.85015798216242
O           0.76805588909824    0.35181201804979    3.00586938780576
H           1.39078427686504    0.00582359764702    2.29751975624735
H          -1.61518106424859   -1.30875590932214    1.42028595575700
O          -1.61741218173650    0.13034545445486   -1.12617148634295
H          -0.87125047176134   -0.39236109452806   -1.49850960362767
H          -1.25295410799258    0.59112874103152   -0.34856962975146
O           0.24793055965960    2.67214376485062   -0.96200358094809
H          -0.01958088303298    2.37161629344897   -0.07709506635407
H          -0.48126472647937    2.43262475439287   -1.54162021162090
O          -2.84287334248999   -1.49897167344368    0.49685756310786
H          -2.55808005010217   -0.87213327759623   -0.22499877061013
H          -2.91176725043385   -2.37016476570825    0.10066618820748
O           2.27903143868356    0.98268641270752   -1.14562095212899
H           3.09285916025953    1.48617105836077   -1.09288989933619
H           1.54310498466661    1.64613273498674   -1.12253973397304
O           1.93265286318336   -0.65465816625961    0.96829784025047
H           1.13196326041721   -1.15322053883787    0.77724426923873
H           2.06858822302314   -0.03260952789912    0.21740143347752
N           0.55651747659655   -1.27602167825409   -2.04821706658044
H           0.87731980059797   -2.14317029355246   -1.63481985360666
H           1.29401403709371   -0.58701947454303   -1.92827609450471
H           0.45106208695243   -1.43497582488660   -3.04268970310055
