    26
        -50.44938720  Gyration_radius:  2.46633090882 Dipole_moment: 5.984
 S          -2.36192480030669    0.45190817497561    0.47816140465423
O          -2.01051499166926    0.25516637747506   -0.91178451696972
O          -3.66748590793033    0.06160831414886    0.86407487017497
O          -1.28893751195880   -0.27082827343599    1.34213128208504
O          -2.11051889630449    1.92369207228012    0.84717610896588
H          -1.19275398198639    2.11799376426987    0.47535705322968
H          -0.85185006541682   -1.13311378788856    0.88102517168333
O          -0.65605282693088   -1.42814416781239   -2.29838140074432
H          -1.17981693583708   -1.81586328931920   -3.00085657122462
H          -1.25147173242015   -0.79218596311775   -1.82505942755463
O           0.90651597063396    0.93195979405875    2.41592315171156
H           0.70471580825502    1.42356227641353    3.21391656358875
H           0.10079961947818    0.43054478268292    2.18810139379197
O           1.22864300408955    0.54635279023974   -1.95869812022835
H           0.62311635478768   -0.19865113112562   -2.12706343443231
H           1.21205445888837    1.09367844838591   -2.74572439214036
O           0.30558536182450    2.18377763369042    0.05471794165899
H           0.73935547031855    1.84769372948615    0.85976161764370
H           0.57049201086504    1.58284879845714   -0.66869541110538
O          -0.10574448626155   -2.16825946876221    0.27574823341067
H          -0.28831152580692   -2.11309965407491   -0.67910955162154
H           0.83098068001124   -1.81404052553378    0.38633742695499
N           2.23188083517117   -0.95389952816394    0.47122835661658
H           2.26888001665077   -0.38319333948185   -0.36644101267788
H           3.11048224129843   -1.44614399082912    0.56102705398111
H           2.13188182055690   -0.33336383701137    1.26712619855022
