    26
        -50.44580981  Gyration_radius:  2.52400542944 Dipole_moment: 6.229
 S          -0.14458639262649    1.44246878637800   -1.93978098154914
O          -0.67892518550514    1.73498925826066   -0.63041796666710
O          -0.05962182447797    2.51974545873968   -2.85285188647996
O           1.24471246131344    0.76036128548833   -1.72377032666566
O          -0.95486535403697    0.29286818267693   -2.57862927990310
H          -1.00339958480538   -0.47208779280799   -1.93632513026001
H           1.63496987656972    1.23599047050888   -0.91679615978595
O           1.32578189054470    0.03697789602448    2.21711248244542
H           1.57491846672372    0.16678543891541    3.13307320592618
H           0.35624226038921    0.28491622715403    2.15631396549138
O          -1.12283059315572    0.83073759220891    1.89199808434539
H          -1.05592131371531    1.26007483111382    1.02195064018944
H          -1.76677079045003    0.10766467141404    1.76340747200763
O          -2.82554116248777   -1.07376133690773    0.95804882743457
H          -2.21118128842316   -1.38861637061766    0.27252474127125
H          -3.51657750303557   -0.58927130702353    0.50304289341530
O           1.86868039376314    1.96317928981156    0.42076750105420
H           1.01422340431337    2.41225610500603    0.42777515999638
H           1.80395411631837    1.26397352251898    1.11254373752371
O          -1.01209626611716   -1.75971344511898   -0.99837182107508
H          -0.06343186252360   -1.78489394490595   -0.60277575459765
H          -1.10333727807091   -2.54128122866534   -1.54675907738618
N           1.42043500853743   -1.73657418493089   -0.11192329510005
H           1.97029740458828   -2.58266237505113   -0.03828141347817
H           1.44674796368960   -1.26222836440784    0.78803216381031
H           1.85812316268129   -1.12189864577795   -0.78990777196178
