    26
        -50.47304502  Gyration_radius:  2.41216219666 Dipole_moment: 4.424
 S          -0.55060320359450    1.15867829161450   -0.59145896563804
O          -0.75400476290482   -0.29755774421166   -0.53933088514290
O           0.83387028298617    1.48495419177514   -0.26611668081833
O          -0.85367915419360    1.62136729722366   -2.02973524144847
O          -1.48962393502710    1.83566582981709    0.28989482476140
O           1.35190312084019    0.20185700488413    1.99077855916524
H           1.48072025730831   -0.67275282914784    1.58287304613871
H           1.31992171451641    0.81445932798038    1.22351555762255
O           2.43347477739205   -0.15760341937512   -1.60406532691592
H           2.30866356927479   -0.95176136270251   -1.06675188332866
H           1.99658739995995    0.55662476185998   -1.09520683866934
O          -2.34347313361527   -1.46445152309904    1.19069099034127
H          -1.78264438918741   -1.10385347668156    0.46173596136186
H          -3.24733125074217   -1.39722680970209    0.87929222563388
O           1.17935607728724   -1.88797399236246    0.22959240851810
H           0.44970200292106   -1.32375498073140   -0.12363078345680
H           0.82273593344282   -2.77517996212344    0.29059317583076
O           0.63269268375150    0.09663773244630   -3.48459875983767
H           1.36708598614195   -0.10560016882150   -2.84209488164193
H          -0.33321302840325    1.00737994713370   -2.62665767532171
H           1.02938985126026    0.61858086481713   -4.18528280065571
N          -1.18282656808927    0.54978408484328    2.50534548705726
H          -0.12809914372332    0.35823596757828    2.46316448269450
H          -1.46595560120048    0.95352918668986    3.39114728115487
H          -1.37117650884887    1.20625207692518    1.68012674574276
H          -1.70347297755613   -0.32629028663483    2.27617997685435
