    26
        -50.44573474  Gyration_radius:  2.56365187449 Dipole_moment: 9.291
 S          -0.88725178747980   -0.68923591105455   -2.46820329338327
O          -1.68429673288780   -0.96334301865919   -1.28198607692238
O          -1.12074381057545   -1.52472347585806   -3.58452541824091
O          -1.06825609299633    0.80622572727184   -2.82210070662589
O           0.59904443140487   -0.79600647120211   -2.06414420404299
H           0.89257780639416    0.02364055945469   -1.50261078807180
H          -1.63938077033487    1.23482112448005   -2.11428112430056
O          -0.66368708817212    1.71373277624229    1.20574411843031
H          -0.51779966328667    2.42346245655238    1.83265165642547
H          -0.51590665067502    0.86503072866191    1.69021428599406
O          -0.15514856208253   -0.60093776248054    2.41764218428071
H          -0.07890958800578   -1.23263481870099    1.65437952392515
H          -0.84829200716850   -0.95709782865608    2.97592261064427
O          -2.52303368162927    1.49429211713437   -0.82040999924262
H          -2.61782280684789    0.52962385223635   -0.75448595242997
H          -1.93728304200563    1.74344154788558   -0.08581482496781
O           1.31099514372179    1.11018459591104   -0.59161179924187
H           0.55177451738035    1.43648792699717   -0.07522470147961
H           1.90847246344066    0.67966494366541    0.07452877037948
O          -0.02479986343464   -2.21366577657602    0.34304729263123
H          -0.75861104115849   -1.86828154958910   -0.20778276870671
H           0.73964910093106   -2.19284678882257   -0.23906738263444
N           2.66597556488893   -0.12021944432297    1.38895690249085
H           1.92114214073015   -0.30653039994754    2.05254396727578
H           3.38463646379765    0.41307228756462    1.86121735768871
H           3.06695557671664   -1.00815740859737    1.11540037014026
