    26
        -50.45374087  Gyration_radius:  2.49826063757 Dipole_moment: 1.672
 S          -0.32849893961897    1.22813755903418   -0.49997145816829
O          -1.45161974379004    0.50683398612273    0.04710994596597
O           0.19321907001263    2.24963651848361    0.35814333834990
O           0.78230852290123    0.21578946973647   -0.85039233001765
O          -0.67601114849511    1.81550324032841   -1.85980726566428
H          -0.67900363993034    1.03337949176397   -2.52647924229190
H           1.15629583467981   -0.20975423232215    0.03819288732749
O          -1.65403495226748   -2.29238640655367   -2.27610701279783
H          -2.60973793158506   -2.24376505918241   -2.21830049822326
H          -1.33191782400560   -2.35836949409081   -1.34888448910791
O          -0.49102796511655   -0.19740887201740   -3.36611930146190
H           0.43998203600411   -0.40569633593054   -3.24975455514756
H          -0.98261682945441   -0.98219444236892   -3.00312210463071
O           1.59221895866084   -0.66443096600238    1.33747904843481
H           2.25818645431006    0.02907431339051    1.50458821959940
H           0.83769650082420   -0.41287768247389    1.95543728205425
O          -0.91625380071695   -2.11830398442181    0.28670611088592
H          -0.00313240128131   -2.13309153311575    0.58545754770499
H          -1.19519372873509   -1.18355782938167    0.29090207335574
O           2.60469632051417    1.81475270069738    1.47556878300631
H           3.25224419379434    2.34413772645690    1.00813279648347
H           1.73128456458892    2.08728793757102    1.13277560400773
N          -0.42217926610880    0.31416852231521    2.72115549308401
H          -0.97074638392988   -0.15695952664596    3.42928530546948
H          -1.02702757453807    0.52016593932655    1.92997721387065
H          -0.10913032672309    1.19992894927983    3.09802658792097
