    26
        -50.45154699  Gyration_radius:  2.56103962134 Dipole_moment: 8.073
 S          -0.36399199290185   -0.10657891679865   -2.22299997810805
O          -0.73554320401808   -0.60268402244891   -0.88126978523292
O          -1.48640057661926    0.29057824244138   -2.99890276961695
O           0.56680211480267    1.15555459294802   -1.92254608384904
O           0.56736563161427   -1.03629074186290   -2.86859602045349
H           1.79287578351652   -0.83390388629642   -2.19213994244105
H           0.00745084769613    1.71067212051263   -1.33099082355932
O           0.47089392352467    1.19952543329254    2.21378928218399
H          -0.38248903785858    0.77276090666395    2.49240383079068
H           0.82450862438378    1.62663568989763    2.99467661852258
O          -1.89163618469059    0.17942069589885    2.77308779399990
H          -2.57439563486183    0.82549092234907    2.58050200251936
H          -2.06752236691757   -0.57416982612329    2.16362513454693
O           1.34488162565623   -0.88543753573422    0.67023361712310
H           1.21383509656560   -0.14061128423885    1.28424725855534
H           0.51563347014193   -0.89987466718840    0.13214514188378
O          -1.02196411010195    1.95557184632171   -0.01928200976390
H          -0.44640703129039    1.88180506293128    0.76053198044578
H          -1.33248687207638    1.05497672880751   -0.19819075618697
O          -2.35402940076929   -1.69370890886053    0.92301384308196
H          -1.87000394026375   -1.32551340118265    0.15806801353997
H          -2.03435382063659   -2.59085286238643    1.03070024087796
N           2.65968711910172   -0.55961662111117   -1.54498261444877
H           2.85098267385302    0.42237908882175   -1.72353205428054
H           3.47030894418778   -1.14181301432012   -1.72604489670467
H           2.27599834781643   -0.68431563228628   -0.54754702342448
