    26
        -50.45088667  Gyration_radius:  2.5104590916 Dipole_moment: 6.655
 S           0.58648738230703    2.27918264351769    0.96657105445715
O           0.68643994200398    0.85562710919513    1.27992950524801
O           1.37107686030848    3.13094644183576    1.78026454531998
O           0.89323101356270    2.46956073761088   -0.51643110238119
O          -0.90216738231341    2.67777726783778    1.09434496594879
H          -1.45473475400959    2.00935289580124    0.60334384049684
H           1.18589865822224    1.60382686112567   -1.04166477911867
O           2.26596090659728   -1.06262271876150    0.49936364707716
H           1.70800989026073   -0.33538243714139    0.86705401245804
H           3.06822357706461   -1.07724087347551    1.02323124836875
O          -2.42354989934129    0.84971999408034    0.02624831303813
H          -2.10641245833743    0.11507240028924    0.63179126567741
H          -3.30823387850628    1.07865250328100    0.31739802698666
O          -1.32316065508833   -0.89501907037347    1.59732146697196
H          -0.96093709535648   -1.64091024423067    1.08694984903687
H          -0.57179094979180   -0.28376496678327    1.70941297313430
O           1.54279641662583    0.40254633336587   -1.74488560448128
H           1.97644377664507   -0.18285952708874   -1.10420012678825
H           0.65047297754728   -0.02310648819851   -1.93636314283175
O           0.11450239318269   -2.72931283065704    0.10994756970420
H           0.93901415011996   -2.21346670054248    0.19104662829013
H           0.30457967692027   -3.60799800198424    0.44171672960699
N          -0.82061094550076   -0.73851186918777   -1.99508557577356
H          -1.18787482387742   -0.97986918474122   -2.90559334565116
H          -1.47968388148868   -0.11617956503073   -1.53992255561268
H          -0.75398087775217   -1.58602071973232   -1.44178940918221
