    26
        -50.46161920  Gyration_radius:  2.45433647742 Dipole_moment: 8.350
 S           0.18216534685754   -0.64642524824130    0.39088733028904
O           0.21771628945104    0.65548023273261   -0.46237350478150
O          -0.83654667754821   -1.53432533860698   -0.12084413320637
O           1.54127501408873   -1.18325874866804    0.24679738153805
O          -0.07562119129708   -0.23346935571195    1.76812071103231
O           0.54367759459381   -1.68418508252968   -2.47571185356320
H           0.10749607125056   -1.71696805877291   -1.61195398360029
H           1.43402109895970   -2.00085919253084   -2.31766457898649
O           1.68528137463967    1.43383336560387    2.69788579266817
H           1.98092264297640    1.06789480864448    3.53365080135732
H           0.92843467543826    0.85891447878496    2.40808662979436
O          -2.71781007403384    0.05456649195251    1.37622156209602
H          -1.79563770784623   -0.01167906324704    1.68532952934799
H          -2.94021610440988   -0.82708665921707    1.06552901536815
O          -2.35875160513289   -0.91321517974547   -2.30629235593905
H          -1.66952067123798   -1.01225430822197   -2.97038398450306
H          -1.98680802465377   -1.32894162046417   -1.51075214152595
O          -2.14535446345956    1.34480512306217   -0.89824873974362
H          -0.75150999512026    1.00269593426233   -0.66353860643721
H          -2.38806735723507    0.65244985115496   -1.55585582010575
H          -2.54235849116382    1.04774115534126   -0.04864539264674
N           2.76400119064777    1.02034893881701    0.34304761815762
H           2.19871327284883    1.55731157755885   -0.31547599793001
H           2.35975278415225   -0.01022764151071    0.26856177833689
H           3.75667450970188    1.08900912249306    0.14441388239105
H           2.50807049754267    1.31784439706936    1.32920908061813
