    26
        -50.45318467  Gyration_radius:  2.45993437456 Dipole_moment: 1.615
 S          -1.32095461449223   -1.33373265967662    0.10823739763894
O           0.09979835032639   -1.10776391078633    0.03365793331713
O          -1.79624479618482   -1.77943047210974    1.37501779580676
O          -2.04766998253651   -0.02747692386750   -0.30842665263909
O          -1.75034047755079   -2.31218071016985   -0.98893002692428
H          -1.36188417077814   -1.91203155224648   -1.83075535214178
H          -1.45925913320731    0.78759251802846   -0.21639177323851
O          -0.79805034707454   -1.06509947422847   -3.00181643299875
H          -1.52042731788630   -0.65390401544877   -3.48123033667221
H          -0.18419253973121   -0.32382980798381   -2.74597128412389
O          -0.60709861894066    2.07461586872294   -0.09914900433901
H           0.14529413540114    1.89361872235778    0.56825554362696
H          -1.11758898455522    2.80283822271481    0.25857255229513
O           2.46321575647516   -0.05133378314009   -0.43987420781893
H           1.62425982272163   -0.51571752183746   -0.24285500636295
H           3.12300662387715   -0.73185981016346   -0.57948913960623
O           0.69640847546895    0.99894759585647   -2.31943790928936
H           1.47646929710632    0.70005820936273   -1.82422546481800
H           0.19283292143875    1.53250220464794   -1.68855222192232
O           1.26081260535687    1.54101997300154    1.55163463350715
H           1.90338450911019    1.09660147296353    0.98000193484114
H           0.87877315936449    0.83462513972512    2.13747197339317
N           0.14589406450195   -0.39492791390658    3.05667097584744
H           0.83031712918188   -1.07460582544744    3.36589574120806
H          -0.51143608010863   -0.88898466366423    2.45538674716585
H          -0.36531977722659   -0.08954090314099    3.87630161414264
