    26
        -50.45034021  Gyration_radius:  2.47957440312 Dipole_moment: 5.955
 S           0.98568882468461   -1.84411846728568    0.09421039023115
O           0.96208137051954   -0.63700465480181   -0.69576736863666
O           2.05623144075882   -1.93312186827846    1.02593191497636
O          -0.38236489304331   -1.98627515911509    0.82037545918007
O           0.94253591587087   -3.06429290616983   -0.83023195281900
H           0.08845776018684   -2.94096523947235   -1.34208382144015
H          -0.67075594948509   -1.11571651203114    1.26075702312403
O          -1.53973124614731    0.11650813867156   -1.02188890251893
H          -0.56904338332299   -0.00633112575325   -1.01560235431902
H          -1.76942138721618    0.27206758035123   -0.09853864035120
O          -1.39629974316111   -2.51068200067081   -1.78912984245442
H          -1.98807112812694   -2.96495473665651   -1.18429908453734
H          -1.55109941454593   -1.55068833695876   -1.65327717438428
O          -1.00047677408038    0.24818476846280    1.85438159578967
H          -0.02300534864100    0.51474979785266    1.96867773633250
H          -1.35358419117964    0.16856704175566    2.74303998688850
O           1.51028095963349    0.60967750471767    2.07838652177246
H           1.77431114700758    1.21280127063683    1.33393549128092
H           1.91206693554590   -0.24698936905512    1.87442374011418
O           1.93511825002530    1.90809526381891   -0.17196961310884
H           1.12369523216460    2.41068614229192   -0.40482891077840
H           1.83488225932902    1.05763872032936   -0.61888670926548
N          -0.47706786231547    2.99941446289296   -0.95921976136783
H          -1.01061418931381    2.18290219869625   -1.24198597073208
H          -0.38027020489094    3.60249498996938   -1.76601099888110
H          -1.01354438027680    3.49735251579812   -0.26039876411458
