    26
        -50.44764638  Gyration_radius:  2.48017098444 Dipole_moment: 3.589
 S          -0.47641360500443   -1.19612167618052   -1.22584010594442
O          -0.85251786814495    0.19498275555797   -1.26673160520229
O           0.37579614496810   -1.61152115463141   -2.29467092191155
O           0.21084890599481   -1.48078836777831    0.14551750678177
O          -1.70144623033322   -2.09004990984963   -1.13978561183415
H          -2.10322379185538   -1.98163850525547   -0.19436731010079
H           1.07495827673402   -0.97911644673752    0.19118014648561
O           0.99300656316588    1.13910308039902    2.13556495735658
H           0.51978896463413    1.78738741942214    1.59950700153025
H           1.63518165239122    0.72452771002242    1.54817379360132
O          -1.05860642108371    2.22496696562815    0.41350880346743
H          -1.63941675173335    2.86492004472598    0.00008951395000
H          -0.97183298433518    1.48345014108157   -0.22183051315212
O          -1.60057725362226    0.29622088271513    2.33814294820610
H          -0.64308511955917    0.30957597984529    2.51524787647292
H          -1.72597500666227    1.05583014066434    1.74877467018561
O           2.43885239620728   -0.16259884995666    0.06846237919174
H           2.30016833177409    0.30037583502612   -0.82152158803258
H           3.16662290998876   -0.77609029045541   -0.04954959070856
O          -2.51988549578888   -1.87208094699109    1.22560388612085
H          -2.07080290629758   -2.57673364258844    1.69803947592307
H          -2.19948683334052   -1.02095998296570    1.64532821293180
N           1.85290244929126    0.80724731654981   -2.28130441007243
H           1.40300364989768   -0.05508860522083   -2.58688535619920
H           2.47937005339941    1.12350692014052   -3.01122051242298
H           1.11276996935966    1.49069316689281   -2.17943366663203
