    26
        -50.44078196  Gyration_radius:  2.71965183118 Dipole_moment: 8.705
 S          -1.16142338852134    1.54267889936383   -2.47742458496494
O          -1.67225968540122    1.71680184650409   -1.13664513645701
O          -1.79569258250710    2.27274183035399   -3.50989211353410
O           0.36047594969052    1.83116884831914   -2.45102363441020
O          -1.22395210570775    0.02858011250433   -2.83697623507775
H          -0.81319395677296   -0.47822912274096   -2.09627287180380
H           0.66909117904920    2.07928307280573   -1.52234649979715
O           0.42624510738027   -0.44530892909269    2.65833581555428
H           0.57417417233335    0.16009294442347    3.38655203553466
H          -0.34166630653256   -0.09779457673018    2.16776528637676
O          -0.20150280089018   -1.06299604208285   -0.69623504699151
H          -0.75552858114106   -0.58127969013262   -0.05531926667007
H          -0.07244496657815   -1.95311087065735   -0.28553464755810
O          -1.66865946000391    0.42976045936714    1.10897361725066
H          -2.60124804554810    0.29050904220602    1.28127097690392
H          -1.63354871255340    1.06629748270828    0.35401334330833
O           1.35113790642865    2.40376264919696   -0.15791910599944
H           2.12989862126275    2.92418512017156   -0.36387790163297
H           1.67990852197429    1.50593652884599    0.12539798720039
O           2.05725391632977   -0.04154444970583    0.46423540961571
H           1.44853372595931   -0.46673948704646   -0.16618711167572
H           1.66720574500553   -0.22614855646205    1.33680649356095
N           0.31350404022321   -3.08875201146857    0.99504948268700
H          -0.35488330510303   -3.80882360583143    1.23803742242359
H           0.40810863829025   -2.46692473256930    1.79263100742939
H           1.21046638333537   -3.53414674226440    0.84658528873061
