    26
        -50.45853965  Gyration_radius:  2.40657631502 Dipole_moment: 4.943
 S          -0.47634026312579   -0.12371425629286    1.66307658935499
O           0.89558859712166   -0.54479275525345    1.44746519842599
O          -0.69827283394955    0.66037040093888    2.83072785387463
O          -0.93022907522034    0.67413230868110    0.41997976595031
O          -1.38990018066107   -1.34002157308635    1.67597335897594
H          -1.33361669542510   -1.82996799432097    0.75638083701480
H          -0.23064421807055    0.66851057637628   -0.34910289182844
O           2.35502670499551    1.59468155251601    0.50927219375492
H           1.83901258820032    2.29436563234267    0.95073893709129
H           2.16352009185499    0.80018185689904    1.02939221882460
O           1.52221377108344   -1.90438804545397   -0.68782507102512
H           2.33134813596709   -2.41187916515503   -0.60981440174548
H           1.37410016816837   -1.46956057312349    0.18599989038430
O           0.82588914165464    0.66623455460140   -1.38693348959368
H           1.14076261319691   -0.25306617399356   -1.42402257991706
H           1.50870222555927    1.14706127786409   -0.84142757594212
O          -1.16700273431421   -2.37837075612061   -0.59388766428399
H          -0.20968178636611   -2.42016544588743   -0.76016535416654
H          -1.52471803021122   -1.69586727474694   -1.22672324736904
O           0.39893431286939    2.91840713286195    1.84842775198895
H          -0.34112106732859    3.30122841229240    1.37394593799550
H           0.02986549112058    2.18950097301840    2.37692932552879
N          -1.96149145573053   -0.37448733603516   -2.18437090420159
H          -2.58664939665087   -0.50853730610930   -2.96869465173285
H          -1.12662288714827    0.09501515612428   -2.51592334665256
H          -2.40867323760040    0.24512881105116   -1.51941867069157
