    26
        -50.45971450  Gyration_radius:  2.42848507628 Dipole_moment: 6.569
 S          -0.12263389264904   -0.25695225903702   -2.20609172638472
O           1.03516382516908    0.52580745199654   -1.72663551230351
O          -0.28483578701935   -0.24818879034832   -3.61663897186913
O           0.08953794943062   -1.73181504948939   -1.73877419086678
O          -1.33304133359929    0.21229971242171   -1.47413447348247
H          -1.01216094391185    1.51552001049068   -0.83483821892550
H           0.47283291704603   -1.77798782466146   -0.81888374600045
O           2.44949565750543    0.41662763142508    0.42882153621238
H           1.94967628578425    0.44490471001349   -0.43265000271742
H           3.37546229109544    0.51057916602240    0.20322940980305
O          -1.02909955201484   -0.81812737913155    2.14670667906578
H          -1.60766812707632   -1.09595571738146    1.38339585691211
H          -1.46934085779341   -1.11887613538850    2.94238237422095
O          -2.32319665539951   -1.66752827002031    0.03878917765228
H          -2.07638055650772   -0.95222398708207   -0.59305642652920
H          -1.92299663157235   -2.46338695523045   -0.32120049311194
O           0.38783233755814    1.51780853719065    1.89705538031540
H          -0.16449116229920    0.73481422166559    2.08002152696263
H           1.24565381113417    1.16874310681762    1.60128335771465
O           1.03856040911073   -1.88505120310056    0.68626841879365
H           1.71434257037126   -1.18608081422111    0.71808230150208
H           0.34641249846692   -1.60982574742857    1.31237966708131
N          -0.36590432596296    2.31336196480786   -0.48901839065976
H           0.46883574950473    2.07291040004370   -1.05546755808354
H          -0.13492424005399    2.13578345472392    0.53709668853601
H          -0.72713226635616    3.24283976491709   -0.66812267383789
