    26
        -50.45051058  Gyration_radius:  2.44899458533 Dipole_moment: 6.565
 S          -0.49587131982473   -1.55485149709511    1.42175544821670
O           0.33090105439006   -1.76740288965856    0.25084275480548
O          -0.49291932150353   -2.58344638747370    2.39069796078838
O          -0.02199581998794   -0.22359039302461    2.08269448288451
O          -1.92105949919749   -1.21712187891576    0.94945360493779
H          -1.95864033596591   -1.04977522869289   -0.07705437026278
H          -0.59650645687123    0.52774551199734    1.73606775424195
O          -1.98503926625070   -0.69618400568475   -1.50561345549813
H          -1.35855574769484   -1.30940803396375   -1.95679672413146
H          -1.59140487927328    0.19112723518333   -1.59862209847082
O          -0.57217779501055    1.62642903271763   -1.40922556665584
H           0.30516282214317    1.14669508504323   -1.26009981166016
H          -0.38805291944393    2.36806672885380   -1.98607846897137
O           1.57087479519659    0.30247848704000   -0.90501056689854
H           1.20367368307586   -0.50770731539390   -0.49898130984804
H           2.02118504207262    0.76116456024397   -0.15803204871519
O          -1.53320774674832    1.59397164749864    1.08688834782879
H          -2.37963027031698    1.14205194535060    1.02219893274684
H          -1.21329608053729    1.72994959216323    0.16790777204207
O           0.07042741964006   -2.14515833577196   -2.40356365518250
H           0.26136125606528   -2.32626191474929   -1.46833488440583
H           0.78013430498661   -1.57103948120955   -2.70365577992934
N           2.46267192143501    1.34849958675824    1.43591885380614
H           3.38801106182511    1.08152470208934    1.74791479552935
H           1.78733522859289    0.80805438926917    1.96920739698431
H           2.32661885921249    2.32418883745159    1.66952063583837
