    26
        -50.44697481  Gyration_radius:  2.68957987469 Dipole_moment: 6.048
 S          -0.21290937230258   -1.05015462536252    1.15546774006951
O           0.10771803176909    0.17524441559632    1.84605654389568
O          -1.31901243641365   -0.98804451384018    0.25776471637135
O           1.06161696982202   -1.53092958182328    0.40630983223279
O          -0.41439188494378   -2.17570526887697    2.17184587952261
H           0.33203441203546   -2.03071096374902    2.86664640750904
H           1.24685653811385   -0.93220861705491   -0.38634780419882
O          -1.37131692011353    2.67927748148347   -1.47133328350993
H          -1.20966777347086    1.94782291707461   -2.12015837893511
H          -1.31568025690108    3.49325845953353   -1.97389379539950
O          -2.50442972345955   -1.12851564986896   -2.17562835975810
H          -2.07673113183828   -1.18358529038659   -1.30407852695871
H          -3.35168986690581   -0.70679616367549   -2.01939878316852
O           1.52933667390765    0.15282115485142   -1.46429523520619
H           1.26462330130476    0.97836422331920   -0.92513870551089
H           2.46333017730368    0.24392380207442   -1.66261272076743
O           0.75568868363671    2.07592638774884    0.02067968087672
H          -0.06993007168936    2.38472690964971   -0.42327677066438
H           0.46618761632985    1.55300882844019    0.78780230291613
O          -0.73630932490574    0.69389189147362   -3.11528611056190
H          -1.39418171343560   -0.00635112670051   -2.92738782585173
H           0.08747895185296    0.38079625055360   -2.71937137213294
N           1.49146821567650   -1.41760978802608    3.69865019083676
H           1.32870880646133   -0.48208920915267    3.33543161730783
H           2.41888927773273   -1.72098289031653    3.43418147520458
H           1.42231281044616   -1.40537903295592    4.70737130606208
