    26
        -50.46152681  Gyration_radius:  2.60009184232 Dipole_moment: 7.384
 S          -0.09966115452115    0.43592953730020    0.57623574640221
O           0.66270809087313    0.45854422905929   -0.78469694990314
O           0.60490846023678    1.24194973855593    1.54074712576861
O          -1.41657191141561    0.97096734608178    0.21108260142482
O          -0.20885138427972   -0.96661080453833    0.97927002153414
O           2.95310210161129    2.37183946550116    1.02578066627565
H           2.08032282109146    2.02723664965476    1.31092079608945
H           2.78254221833212    3.22233239106743    0.61955228462750
O          -0.90899963327097   -2.52345505261806   -0.95460944940574
H          -0.54534495241331   -1.99895583378103   -0.19053040349284
H          -1.50565218073481   -3.16561110663488   -0.56511559190594
O          -4.00782750244005    0.27731537447219   -0.48872220368244
H          -3.21429042768547    0.58518962095509   -0.01963067325040
H          -4.75832059732576    0.60948219517766    0.00509551522457
O           2.20129335240811   -1.07734255291847    2.10647152321341
H           2.18216512289062   -0.27953544566670    2.64253823057412
H           1.28678239562396   -1.18167304032548    1.78139654570451
O           3.06860907128458   -0.03478231133806   -0.19281730992135
H           3.31337842865041    0.84787246329865    0.14843234607498
H           2.93729535707665   -0.58380515817535    0.61399670094633
H           1.64967479778093    0.22876037028906   -0.61225257915405
N          -1.81754338042458   -0.29425141359461   -1.99376940229538
H          -1.36070719521972    0.03396168955330   -2.83802188137513
H          -1.48952805278243   -1.27223845989975   -1.72591817429663
H          -1.55044447965519    0.32157363827180   -1.14808587227400
H          -2.83903937568492   -0.25469351974757   -2.04734965289511
