    26
        -50.44688786  Gyration_radius:  2.59515714124 Dipole_moment: 4.353
 S           1.86386534732520   -1.28684500016157    0.98441990831265
O           0.77384264002277   -1.82824862131311    0.20750614918283
O           3.06311344526513   -2.04424960849376    1.00092109117745
O           2.14819906715981    0.15193815392070    0.42509734268053
O           1.37456757009701   -0.98297856452160    2.40514695528527
H           0.44830643046196   -0.57917863962967    2.30853047741609
H           2.33631260669305   -0.00437078425292   -0.58100187580516
O          -0.55881943904983   -0.37147266723672   -1.54887069364322
H          -1.48855256398252   -0.48359075690052   -1.29072764489079
H          -0.07843783122610   -0.99458145947698   -0.96247987232846
O          -2.76920826764415    2.18853479655464    0.56889223494531
H          -2.71124028337908    2.23353509458525    1.52642053040968
H          -1.87188257294000    2.34711252903718    0.23884095682201
O          -0.89525058472740    0.08096582447628    1.90890093652542
H          -1.45231833107375   -0.52621411669649    1.40168352033929
H          -0.62221515605435    0.77561287576413    1.26589976143789
O          -0.08723813022080    1.75313718851590   -0.04173078022409
H           0.85208291417016    1.67512145958164    0.16077730154629
H          -0.25573847940209    1.06726723954389   -0.73846937236374
O          -2.89558854841323   -0.43176718712498   -0.07839716980412
H          -3.78367823623604   -0.75517225433694   -0.22967102425283
H          -2.97166941860176    0.53128255424070    0.10500140141303
N           2.41087243227231   -0.50634086566406   -2.03199833675291
H           2.63140858729166   -1.48733194220323   -1.91529050675413
H           3.06720059060781   -0.09148796481505   -2.68022102400468
H           1.47206618157620   -0.43067728339079   -2.40918026668013
