    26
        -50.45146385  Gyration_radius:  2.53130998138 Dipole_moment: 7.040
 S           1.58699943996692   -0.01701102955707    1.23302868252401
O           0.19274223056351   -0.42179490479179    1.20998702718640
O           2.51960261801510   -1.08879259763247    1.30339415072813
O           1.84339509900012    0.85449596488516   -0.03028802933775
O           1.79893309367555    0.99255563163085    2.34496394099525
H           1.07293399039950    1.76093724213597    2.15763124307107
H           1.34706542216436    0.53379214389065   -0.85002323519677
O           0.53431466195340    0.16581499096127   -2.11304411135808
H           1.11684130659319    0.13106997467494   -2.87336217937499
O           0.60789921751478   -2.97068482093715    0.41844873768712
H           1.55482638223944   -2.90049049181441    0.57707449101730
H           0.23847557546324   -2.19404754497885    0.86675951012676
O          -1.32878523874699    1.14750991718879   -0.23481789884404
H          -0.87278622309553    0.50085648600693    0.34842248012756
H          -0.82643576563221    1.12328977381714   -1.06000315475538
O          -2.88722203229445   -0.98778428530504   -1.07766213162376
H          -2.49699154966426   -0.18304052627880   -0.68900606040255
H          -3.55688695786835   -0.70095417391844   -1.69969851308132
O          -0.52693612934551   -2.13560847497122   -1.87843927774567
H           0.12380706875349   -0.76982990540084   -2.03225330406674
H          -0.11361405217438   -2.58930775604913   -1.11322844621520
H          -1.43568572279716   -1.91845057145858   -1.59551946541684
N           0.05799046208686    2.74682377159187    1.77156350159740
H           0.50503859130351    3.57483394853166    1.40055977346398
H          -0.51336439997964    3.00555999205784    2.56513797223621
H          -0.54215706812433    2.34025725556296    1.05037431681206
