    26
        -50.46081194  Gyration_radius:  2.41725849893 Dipole_moment: 6.018
 S          -1.73738024267911    0.06655308269779    0.57889199656200
O          -1.93791655374967    1.20405721861875   -0.28941637579561
O          -1.74008465029625   -1.20550673155915   -0.14953270183315
O          -0.56313584947293    0.15254302368500    1.41531282281697
O          -3.00060722553252    0.03688021860036    1.53456944544382
H          -3.58701483516050    0.65266445600642    1.10694916423579
H           1.06148675595923    0.41597371449553    2.37904257780720
O           1.93657398555499    0.82600408039728    2.33070093666093
H           1.73978670641179    1.74880480765325    2.10115068929017
O          -0.66309356272369   -1.36900274410217   -2.57958172191349
H          -1.19881009880561   -1.30897305980501   -1.76072180430854
H          -1.27703396316442   -1.28666253874834   -3.31046470760203
O           0.38810896459070    1.01469634000223   -1.56187575306168
H           0.21027005892205    0.26783283803896   -2.15390488683188
H          -0.46753750352737    1.20087438397385   -1.12999622909101
O           0.42009384835347    2.71751004820267    1.02995991517636
H           0.47314067100174    2.87705858178089    0.08488324396626
H          -0.13219311858075    1.92702581782952    1.13171954274744
O           2.29707102788847   -0.12731428938335   -0.08792395712177
H           2.28895766132839    0.24171093721301    0.83804897173506
H           1.47919498916257   -1.26429121584342   -0.07678199380315
H           1.73113822178273    0.47138692081384   -0.62739919315882
N           0.75097711012285   -2.13717590096296   -0.16582698224837
H           0.74413967983578   -2.44354762065937   -1.13835828484420
H          -0.21462755936204   -1.78169440570004    0.04260410771319
H           0.99849548751654   -2.89740797291287    0.45795120060293
