    26
        -50.45084363  Gyration_radius:  2.47569606711 Dipole_moment: 3.086
 S          -1.90741497279729   -0.44381689234854   -0.92443455179987
O          -0.63586911898398    0.02518606185809   -1.44699575019050
O          -3.01965805204572    0.41076017766940   -1.12266189174356
O          -2.18033256608449   -1.84121461114531   -1.52155120951818
O          -1.74710050103847   -0.69378446542070    0.58682387264619
H          -0.89006514969085   -1.19086160792676    0.81352963541019
H          -1.28898136631138   -2.29770072326537   -1.61345521587684
O           0.40913016101099   -1.95663445750581    1.10739095895123
H           0.32018109328181   -2.40367106665070    1.95123746898506
O           0.29529937220679   -2.52932476258970   -1.55276003501682
H           0.50519467552551   -2.57991565512578   -0.60407814319585
H           0.45914585736637   -1.60926658692367   -1.80020047486691
O          -1.23169345192724    2.30442806706905   -0.05148971927963
H          -2.18492219913108    2.18946950950956   -0.11643045447623
H          -0.87124157429558    1.64224109639569   -0.65698485508547
O          -0.00822976806253    1.73524802472826    2.30769913417543
H           0.14702946177964    2.58187349356067    2.72866438169156
H          -0.50370017496394    1.92522910555910    1.48482685250080
O           1.91863106871321    0.02769398598928    1.50681495157935
H           2.10262380006519    0.40865492594244    0.61395421189432
H           1.28080650845322    0.64776187952362    1.91731486821037
H           1.07449606007302   -1.18025706547370    1.27005027752789
N           2.05528693887603    1.10085958746803   -0.97392024012812
H           2.74659940005722    0.85125832601513   -1.66974069460196
H           2.00327732252471    2.11145409100817   -0.93937393946761
H           1.15150718544771    0.76432955204182   -1.29422945836440
