    26
        -50.46979175  Gyration_radius:  2.41651060258 Dipole_moment: 5.551
 S           0.85991238953446    1.21990963737186   -0.77791944098756
O          -0.46483096291731    1.47782695321684   -0.24195826897477
O           1.90834909845753    1.57947354666082    0.15399625767432
O           0.98480488212827   -0.18209034530816   -1.20865787793456
O           1.04798884154770    2.09653411370362   -2.05940075631062
H           0.42539704335201    1.70902367888622   -2.69845230699732
H           1.02799927185731   -1.28520733433310   -0.03837501531602
O           1.06423571886849   -1.92034927526502    0.72304152838695
H           1.53089769353229   -2.69374296643145    0.40293904833070
O          -1.21770879520427    0.78298396600517    2.25574346812531
H           0.22708626845917    0.50794102763353    2.44682193523182
H          -1.15066665532861    1.24630635148676    1.40002233065885
O          -0.38819843752368    0.23151602200139   -3.37416145179149
H           0.02325784533931   -0.13635474399161   -4.15870088721156
H           0.08666709996983   -0.14659096721307   -2.60044279687414
O          -2.20386836977118   -0.36157837214112   -1.12601017490135
H          -2.07829231081810   -0.38010029685735   -2.07792757893196
H          -1.64859141578203    0.37597383353377   -0.80963329403010
O          -1.71103518812143   -1.61576565747614    1.25588405955191
H          -0.80296785324962   -1.90116560207332    1.08234872834661
H          -1.57231174701586   -0.11331876428588    2.01968636170239
H          -2.06189177746113   -1.32383778431862    0.39612917209679
N           1.29398335001716    0.26340184629099    2.32879183113586
H           1.35024858377222   -0.71102182591480    1.98953454906484
H           1.82779935745026    0.40389721799279    3.17908809054894
H           1.64173605891551    0.87633573082348    1.53761249940540
