    26
        -50.47045225  Gyration_radius:  2.53827924533 Dipole_moment: 4.643
 S          -0.85574622653818   -0.39385059388091   -0.67140951808198
O           0.11482847227214   -1.40721740687766   -1.02773660152813
O          -1.76998290937695   -0.82698345460545    0.37420266901929
O          -0.15226089151890    0.84259721142825   -0.25168310262545
O          -1.67346980593290   -0.02859021507330   -1.93275105267012
O           2.11029954565986    0.11739054769566   -1.83313070692929
H           1.41504907419175   -0.55830229747919   -1.67808829623912
H           1.66107484083472    0.95287564318166   -1.67719900982609
O           3.61411651553561   -0.45655831900151    0.24548892888977
H           3.17458435643992   -0.18818695647408   -0.60550340207607
H           3.97178417060846   -1.33205881323890    0.08879732753119
O          -0.03679044245775   -2.41182099147886    1.54278325438264
H           0.27207274228234   -2.80428450875590    0.71832821664263
H          -0.84893606383342   -1.92998601375622    1.26795290665621
O          -1.93382798049603    2.76934997672391    0.17054011157849
H          -1.22951913066540    2.09478377544061    0.06707600472767
H          -1.74210447597768    3.45937473225582   -0.46699160695139
O          -3.66677842331889    0.84290317382523   -0.57899615198886
H          -3.27101015794936    1.67442549480302   -0.24519623009142
H          -2.54221781743038    0.34040981828386   -1.58372044011679
H          -3.39848370089463    0.16305292656623    0.05749508782292
N           1.36936806555044   -0.17528280596813    1.63194340891932
H           2.32825386757815   -0.30460252344400    1.20193590217177
H           0.88967684031944   -1.11855711196665    1.74200483798186
H           1.42069435286004    0.32337678413303    2.51411882155436
H           0.77932519225264    0.35574190765926    0.92973865124105
