    26
        -50.45050513  Gyration_radius:  2.59673512273 Dipole_moment: 3.905
 S          -1.96756164913295    0.42556447193744    0.74102105715625
O          -1.04284485674153    1.54668932535230    0.76841558991179
O          -3.29423211355944    0.71425736172549    0.34686004850648
O          -1.37747670376317   -0.63457196318719   -0.21471221631073
O          -1.95143125489599   -0.24655952879558    2.12308098803529
H          -0.98634702036774   -0.46003268671478    2.35301650993649
H          -0.32896731744238   -0.68274058242328   -0.14887295583454
O           0.53474225099612   -0.63671697657139    2.54276430996679
H           0.92245724261285   -0.88974164563659    1.68930252438528
O           0.79464890826950    2.05060239523125    2.61654625568173
H           0.45848473567590    2.52775248651721    3.37627993564722
H           0.05357413943384    1.98607255960925    1.97684185212780
O          -1.51868738250655   -1.20531140561094   -2.95300346444185
H          -1.62737412836059   -1.08949742740860   -1.99799948419911
H          -2.24171605154767   -0.72936662611858   -3.36463783552709
O           1.41786683633383    1.89619418592447   -0.30760007768424
H           0.46276892100807    1.97885563051964   -0.14126195635917
H           1.84079405182767    2.22632509243365    0.49127199744921
O           1.11739781018954   -0.72582449131335   -0.13514221516744
H           1.29183238604286   -1.17624633650821   -1.02273540512596
H           0.83311694189555    0.27964132438922    2.71411725431324
H           1.36833180884936    0.22277602977459   -0.26707783881003
N           1.34299260445900   -1.75767755900588   -2.54008016172550
H           1.95962618942400   -1.25814833500829   -3.16849894430561
H           0.38745181108322   -1.61701598477698   -2.86318179172029
H           1.55055183065644   -2.74527931416218   -2.61471396548042
