    26
        -50.45039462  Gyration_radius:  2.44967277795 Dipole_moment: 4.506
 S           1.85632635148161    0.87458988721754   -0.06275053295649
O           0.66403674342268    0.80817961335628   -0.87875773515728
O           2.46835641817491    2.14464977940494    0.06829551941044
O           1.52575668841407    0.35444356578288    1.35958114519174
O           2.85007602112846   -0.17529898870937   -0.60660142433405
H           2.36760539961306   -0.73988053816113   -1.28898783714450
H           0.79189488027692   -0.33024479539174    1.36375529894924
O          -0.43535382775458   -1.30460731133531    1.51626964492984
H          -0.47316231380564   -1.62334303684137    2.41971120058004
O          -1.89395110203509   -0.00043445664132   -1.39822379038017
H          -1.72205858619579   -0.94854436188047   -1.44223676718169
H          -1.02009916790389    0.41471037016735   -1.32482400634938
O          -0.61850614189859   -2.53134140574740   -0.88188833502281
H          -0.72039132433496   -3.47890931958314   -0.78140415176416
H          -0.53965484472457   -2.15041374995763    0.01617888797733
O           1.40136724241119   -1.42372477332734   -2.32245129818780
H           0.97331223646389   -0.63190267092903   -2.66318349594789
H           0.70184484943846   -1.90616186555876   -1.83509004783803
O          -2.17001497208438    0.50077433442957    1.22806026416814
H          -1.63903320358520    1.33071756262736    1.31067755789411
H          -2.32857819936102    0.39963739542422    0.26435773028114
H          -1.18584173090567   -0.58723003190586    1.43320039720687
N          -0.43538475391529    2.58805317808444    1.18854486838480
H          -0.01314794393501    2.34034642158765    0.30012457356494
H           0.30201497018162    2.51324467981295    1.87898930192161
H          -0.70741367857355    3.56269050807993    1.13865305180878
