    26
        -50.45050541  Gyration_radius:  2.59590029541 Dipole_moment: 3.903
 S          -1.08404106700843   -1.81784683233155   -0.35270715836548
O          -0.62979877619005   -1.12619535269041   -1.54766932300633
O          -0.97049467767139   -3.22702012433405   -0.36052639004955
O          -0.27908146033390   -1.25443476202894    0.83910220945467
O          -2.53571398745464   -1.39666054018823   -0.07416389175584
H          -2.56551575316714   -0.38258698530779   -0.04934373158286
H          -0.09723211062751   -0.22378475016996    0.73808118766542
O          -2.41403719497821    1.15136345879954   -0.11852432149072
H          -1.57213167194153    1.39507429329332    0.29929163029891
O           1.06047349629555    0.96008452550464   -1.90669891445462
H           0.48232353310884    1.46975250363877   -2.48295165747422
H           0.69251245064286    0.05945247618527   -1.91108668365673
O          -1.81077780601288    0.92933496046619   -2.74187325666609
H          -1.40324720339831    0.09670395045916   -2.42050588899495
H          -2.50009508634933    0.67604065698120   -3.35712747793369
O           2.15298822741805   -1.84916008130866    2.09492749346319
H           1.24794560987496   -1.77949475940436    1.75843361289961
H           2.47320246833581   -2.71142124625634    1.82514926414049
O           0.23273812828314    1.17853394574990    0.59572925928849
H          -2.29512644914995    1.30757451555169   -1.07745252584558
H           0.63166327106616    1.22155422180409   -0.30941734471563
H           1.01141843100785    1.24558270710998    1.23594743033637
N           2.32781168544922    1.08811379569748    2.17793734622764
H           3.18063421737685    1.46746364057052    1.78624658957915
H           2.43533963503386    0.07725749241101    2.23952263494979
H           2.22824209058660    1.44471829003418    3.11967993771542
