    26
        -50.44246713  Gyration_radius:  2.56907153163 Dipole_moment: 3.913
 S           0.35661702329796    2.12250538799581    1.49166030310643
O           0.24414689318518    2.92565856860487    0.31053647560748
O          -0.72254679886223    1.24049268491414    1.78205000597002
O           1.69642112297102    1.38197609158735    1.50864304375209
O           0.53555533405071    3.08773395430156    2.71570844482342
H           1.09229021440342    3.79494111605085    2.39990433470924
H           1.84212550285456    0.80934583648678    0.64465248843830
O           2.06032998972304    0.02750990048258   -0.55104303253931
H           3.00384877073853   -0.09334740353845   -0.67340049859039
O          -0.35768223567417    1.03081843955360   -1.54515906633272
H          -0.28702404698152    1.85977729269093   -1.04767108686553
H           0.51126020561408    0.61780736004083   -1.45722834604414
O          -0.73596786848877   -1.53988412620050    1.63225891554496
H          -1.43782104402952   -1.34217899705647    0.98249821444245
H          -0.56003864860953   -0.67862093365500    2.03091766854570
O          -2.34460013547466   -0.23122030015566   -0.14456061562691
H          -2.44998336002149    0.39559511732753    0.57677940190155
H          -1.69051937524668    0.18967422790771   -0.73762764714721
O           1.04811390535318   -2.22623853346989   -0.19818704622831
H           0.47219259990523   -2.09897904435762    0.59427152823709
H           0.40568298410292   -2.29667779127434   -0.95139882994110
H           1.66203756409775   -0.94057995537364   -0.38728089650311
N          -0.86560836339135   -2.07976512505508   -2.09263524189445
H          -0.72337162372975   -1.20057140949306   -2.57671816014310
H          -1.69627301142305   -1.96357171499728   -1.52208201848045
H          -1.05918560835592   -2.79220064331906   -2.78488832873698
