    26
        -50.44246726  Gyration_radius:  2.56911212435 Dipole_moment: 3.918
 S           1.84598480899171   -1.25852489828416   -1.36575239538558
O           2.10052596765784   -0.03893458132551   -2.07324314796371
O           1.93756671726916   -1.21674707847189    0.05438839605323
O           0.51684211177307   -1.87015451655733   -1.81674717145473
O           2.86017354596958   -2.33757012271978   -1.88435273201369
H           2.94065669377478   -2.17855257616198   -2.82139894327248
H          -0.28049189936027   -1.19976393862184   -1.71653727863278
O          -1.38605890665830   -0.27615268818695   -1.59669248625229
H          -2.07480042221827   -0.53667584133190   -2.21117444260787
O          -0.13827475490913   -1.39503492863667    1.90272375585711
H           0.52225353561140   -1.72944451950710    1.28349619826554
H           0.20246548101081   -0.50828317937186    2.12972677640540
O           1.17043472772337    0.99908214385760    1.78791093164695
H           1.93432430623077    0.44917980102810    1.59173096962602
H           0.88980596672888    1.34353445855776    0.91651516257123
O           0.44242733697282    1.67439295926303   -0.76472716030345
H          -0.34405203651251    1.21387879109093   -1.08535892497633
H           1.17546023458263    1.28685664175094   -1.26693740853556
O          -2.31554380958513   -0.47589604336542    0.71091202932087
H          -1.80267409334746   -0.38710950904067   -0.62893394790004
H          -1.61354781699853   -0.96837196170166    1.20130107044532
H          -2.24186047180655    0.45174334590858    1.05593146753992
N          -1.71661882967378    2.00850692139710    1.57224861101103
H          -1.32124787030908    2.49939190963718    0.77834404523419
H          -0.94692791247309    1.81506438741225    2.20407601676503
H          -2.35682260044998    2.63558501338040    2.04255063854565
