    26
        -50.47216061  Gyration_radius:  2.41253190041 Dipole_moment: 6.328
 S           1.03082525161453   -0.09147679019841    1.40800088603114
O           2.14104236632976    0.76869063738421    1.07247496405976
O           1.34919945626608   -0.83220552629024    2.73458253187650
O          -0.21892768332274    0.63261760552249    1.57171614935250
O           0.87660198564395   -1.14497232847348    0.37694927695214
O          -1.54299324171851   -2.05307711857824    0.03365290178997
H          -1.45295762616755   -2.94947257074023   -0.29401354871267
H          -0.62515574060709   -1.72174952118297    0.19538246036284
O           1.62263828426205    2.27772822334542   -0.97672974534608
H           1.82750616768834    1.77491669694752   -0.14427976951442
H           2.30764612334372    2.94377268449314   -1.05459338538381
O          -1.18682043402700    2.06480738579191   -0.45941001564253
H          -0.95352691009136    1.60717554539893    0.37235644332495
H          -0.36122524041092    2.46924477200810   -0.75122240499125
O          -1.74020121383409   -0.07697640386474   -1.90701889685369
H          -1.76287005381054    0.78146056435249   -1.41721453291407
H          -1.90643371446391   -0.76168732804929   -1.23265267243117
O          -1.21320104734866   -1.46819144462936    2.80918099607354
H          -1.57094470762703   -1.94075989580445    2.04457435050580
H           0.48480939387519   -1.24532478479402    2.95380485792161
H          -1.20307903554392   -0.53705704618531    2.52782336806544
N           0.84153419182083   -0.10279678740883   -2.00823444096238
H           0.99830697216579   -0.59505305880019   -1.07977080691059
H           1.17841961431525    0.86966909943224   -1.87859901815735
H           1.32199796618923   -0.56827769578010   -2.76958667706933
H          -0.24219114461080   -0.10100491378228   -2.12717326136952
