    26
        -50.43247964  Gyration_radius:  2.95526510988 Dipole_moment: 2.325
 S          -0.87232590331752    2.65104218990244    0.71847372769466
O           0.03661339102854    3.72773067534358    0.92986441061081
O          -0.88213016575297    2.00887438191651   -0.56112215396909
O          -0.71929240624543    1.61210815052130    1.82658454874133
O          -2.33343131283698    3.21480659355113    0.95151525861681
H          -2.27702981238369    3.91434157098063    1.59978780654059
H          -0.98048576302240    0.68537964826813    1.41501449254801
O          -1.26972849545761   -0.42978050451781    0.52511476356489
H          -1.23195885676592    0.11928706709284   -0.27189882925362
O          -2.49907580456924   -2.81325415909291   -0.13897120277594
H          -2.25090915854096   -1.90438069757618    0.10936519207357
H          -2.53413485782527   -3.30904601766138    0.68109252827717
O           1.81055078333258    2.49170344242511   -0.82569170737797
H           1.65120804257885    3.15328932662895   -0.14355241951998
H           0.93000185497217    2.27146766186042   -1.15246711765076
O          -0.20684574950957   -3.35152512213169   -1.52727422463991
H          -0.13571070119656   -4.29424963585024   -1.68075939203552
H          -1.10512741715481   -3.19416410444853   -1.17170119526228
O           0.86164086170205   -1.79828873050579    0.45088302204235
H           0.66249897691332   -2.40022017881899   -0.29044861354154
H           1.60550807019948   -1.21320035350409    0.14328705785262
H          -0.39114465465552   -0.97817728223464    0.54007754794370
N           2.83241110215794   -0.21240952903313   -0.43701298837845
H           3.16919353603612   -0.50500595993995   -1.34645990419685
H           3.62663572931518   -0.19500778919059    0.19087287469982
H           2.50306870100668    0.74867936601474   -0.53457347260845
