    26
        -50.44906848  Gyration_radius:  2.496620437 Dipole_moment: 5.056
 S           1.05417879600752    1.36330623838705   -1.84145355256323
O           1.38551937923667    1.72535464520416   -0.43973276173105
O           1.78274506336155    2.09081771257441   -2.81560722382778
O           1.16831503442845   -0.10793500843167   -1.97145644168646
O          -0.46987616978775    1.69694877621177   -2.01913130420538
H          -1.01159816474175    1.29775109106550   -1.30975668739577
H           2.10783970433789   -0.65492924728431   -0.81778007766791
O          -2.15182969747631    0.80164106755810   -0.06936118150788
H          -2.82268238355335    1.48547555001925   -0.09690736791498
O          -0.77201668158183   -1.50278715973685   -0.87706193661026
H          -0.08237807509647   -1.08104778574791   -1.43458047776877
H          -1.49272998485878   -0.86276563209049   -0.83689462424365
O          -2.41207002170494   -1.62215727123095    1.67007056154796
H          -2.51422068905106   -2.31445527194141    1.01325011685055
H          -2.53388653828077   -0.78759828338613    1.20054134440482
O           0.35803374439410   -1.35649059926772    1.51876821448010
H          -0.30431095493200   -1.68141547770115    2.14007099388727
H          -0.06872159873205   -1.49231745284874    0.63132760096693
O          -0.26561210496508    1.32999036558381    1.58702215042192
H           0.01492790556655    0.41574454244103    1.78029526732496
H           0.36836933207055    1.66365362617484    0.91778242130876
H          -1.50069913346506    1.06493412119888    0.65674666256741
N           2.50008655534438   -0.45844478152245    0.15371955976191
H           1.93163605780759   -0.95432370674770    0.86097410052638
H           2.23855755926602    0.58320029806114    0.15376736762950
H           3.49242304640096   -0.64215036655646    0.24538725544336
