    26
        -50.45014406  Gyration_radius:  2.47218646165 Dipole_moment: 7.586
 S          -1.04283218092630    1.95653723776680    0.09016807189197
O          -0.29539714931927    1.87155429397618    1.36423168743205
O          -2.02480442491619    2.97668127933175    0.03208506855661
O          -0.07600649288233    1.98123305348904   -1.03042624197494
O          -1.77374222405621    0.55512690399832   -0.04814064465773
H          -1.25363718645633   -0.06707329986866    0.49923193391682
H           1.33547755951510    1.98024799447873   -0.48524066235996
O          -0.13641460963086   -0.72515208659775    1.65230850429638
H          -0.14969525080520    0.22744084003894    1.87406621457620
O          -1.71962454761136   -2.82932028567407    0.78284136341671
H          -2.56531641540636   -2.82067725533792    1.23359668967810
H          -1.14803152081219   -2.20173703304532    1.25108422528635
O          -1.68345632687092   -1.72060660151475   -1.74027254046761
H          -1.68462820487232   -2.29193531567014   -0.95097510160904
H          -2.16374943179636   -0.92518993646063   -1.48477068137894
O           0.65698451217087   -0.44555062859803   -1.93926901223071
H          -0.14356208160878   -1.01811856614377   -1.98523976733368
H           0.31772021871109    0.45872274087023   -1.79714059309764
O           2.12242372454146   -0.84539858322665    0.11243133890149
H           1.56292617177577   -0.76005481244633   -0.73334702055012
H           0.71791985972990   -0.88743214131379    1.20977325984606
H           2.69246185574558   -1.60285147491206   -0.02282200619923
N           2.02534246834656    1.83349301098683    0.33540351622759
H           2.77901371701080    2.50921837874519    0.37812669420248
H           2.35568113052241    0.84825852275634    0.30907927921694
H           1.29494681972011    1.94258373439247    1.09321640446830
