    26
        -50.47460347  Gyration_radius:  2.41953013683 Dipole_moment: 1.177
 S          -0.08134660617420    1.71553044676528   -1.00930014947604
O          -0.46228468505816    0.60288877682689   -1.84473936944099
O          -1.07364374052167    2.04861142549914    0.00024305176976
O           1.24638962259588    1.54880641967380   -0.42130902520404
O           0.01363525719173    2.97882968480314   -1.95788215013194
H           0.05469803348635    3.69091496488708   -1.32871925453080
H           1.97209272381300    0.09694687772259   -0.26616172389844
O           2.38045063597682   -0.78955849632332   -0.10769977914554
H           3.32815421908227   -0.65525008270973   -0.15196647651556
O          -2.69560699388546    0.02992562729815   -0.33775410121925
H          -2.19691361389833    0.84429666566624   -0.10039591016314
H          -2.55316176789755   -0.04344328732577   -1.28730807933030
O           0.50896686786329    1.49651148794289    2.14669266646491
H          -0.38864480464317    1.79827629035366    1.97019211264872
H           0.95157955253077    1.60015671342927    1.28358619040313
O           0.40393845260975   -1.90820557616070   -1.64654996855631
H           1.26350751580614   -1.73700344283041   -1.22698109839046
H           0.09125211138688   -1.02188302906437   -1.92153180590405
O           0.75058554081533   -1.15729773591900    2.10269937700768
H           1.47803514014869   -1.17714099540592    1.45768178638385
H           0.63380177246044   -0.20124275852720    2.30895151409290
H          -0.45926385563337   -1.65971487648096    1.24043908579418
N          -1.14430585920372   -1.97131989101195    0.48136119572451
H          -1.62220745805303   -2.82402472070150    0.74933510182576
H          -0.56456241177785   -2.10668398779439   -0.40341520695220
H          -1.83514564902499   -1.19892650059777    0.27053201674363
