    26
        -50.46114242  Gyration_radius:  2.69241125372 Dipole_moment: 2.315
 S           2.66041037645341   -0.53004370954556    0.50576800762440
O           2.25454698663628   -1.54981794700488   -0.45909940986151
O           3.15473488614269    0.67482009096382   -0.09020304061871
O           1.56442433693730   -0.26977289174594    1.45267155313194
O           3.82929497001015   -1.19242181341164    1.35040230847932
H           3.60074392477006   -2.11771297171291    1.36498401440040
H           0.04139601346819   -0.85685827597859    1.41738108395319
O          -0.91173107860179   -1.11841306922429    1.42341138449774
H          -1.03071482557165   -1.66354492536902    2.20209220447003
O          -3.26185213297931    0.96872082038439   -1.08389547217760
H          -2.80197435634555    1.27689971525421   -0.26479788569497
H          -4.20030899573262    1.01796551856027   -0.90031186702778
O          -1.88031123125377    1.47397322483762    1.12528713307982
H          -1.62045008791732    0.56731662433435    1.36317663367677
H          -1.05954948451742    1.90652957267290    0.85569865928446
O           0.72121798155610    1.84671726355004    0.15058523349103
H           1.01474629786716    1.14336458443023    0.77524987980884
H           1.53934798125869    2.30511597715487   -0.06559264212348
O          -1.82119988336103   -1.27377665464095   -1.18450566514481
H          -1.63345772854563   -1.39986993419941   -0.23906378491699
H          -2.45565656332271   -0.52320560986530   -1.23598021821296
H          -0.49388474948204   -0.62115442623742   -1.60315943182092
N           0.45944442089675   -0.12604705624961   -1.71690041522200
H           0.47099486454016    0.74147063297775   -1.13376018475148
H           0.65296505725629    0.08745115644746   -2.68940044121355
H           1.20682301983753   -0.76770590637557   -1.32003764710070
