    26
        -50.44861069  Gyration_radius:  2.62638733922 Dipole_moment: 5.488
 S           0.97439767896538    0.65609151456425    1.15261953096720
O          -0.21559202495074   -0.16651179737464    1.23293120334959
O           1.90721791168497    0.29127692490453    0.14127997215033
O           0.50238640230606    2.12088875380808    0.96139171478981
O           1.66590803993449    0.69934404705633    2.51593298486519
H           0.90235653164532    0.80285384203073    3.19538036619881
H          -0.34306647187235    2.09209234425254    0.40122549803178
O          -0.79448549081286    0.43439519128235   -2.57384988908241
H          -0.98926909351996    0.74786517766036   -3.45774017638909
O           0.98183839724103   -2.94931642050510   -2.05906279110656
H           0.62641350082854   -3.53639999840207   -2.72763179396318
H           0.21682985468502   -2.64750202925040   -1.52149237134727
O          -1.10468965383350   -1.75521443763625   -0.83728994636606
H          -1.17682964432782   -1.05677926574492   -1.50557720236707
H          -0.75317788392465   -1.32646303426090   -0.04122369053259
O          -1.61956695258492    1.64653577454597   -0.35645381639811
H          -1.33757440034991    1.32471567161821   -1.24446148886900
H          -1.79595051411382    0.84714991083920    0.15314274290675
O           1.66215141983720   -0.35146419882293   -2.49730494591784
H           0.18292463401285    0.18109154567683   -2.57577586823193
H           1.94564498123956   -0.07247733749149   -1.61218189612894
H           1.58019751629498   -1.32508917031903   -2.43176025682884
N          -0.50501830556711    0.85472154901001    3.87065053066188
H          -0.96314890603775    0.31079236364079    3.14613192194885
H          -0.91814876560887    1.77692290158594    3.90604984997248
H          -0.63174876106971    0.40048017746199    4.76506982770354
