    26
        -50.43736633  Gyration_radius:  2.73102979877 Dipole_moment: 3.239
 S           1.44996163131295    0.77659037238695    2.26802046377586
O           1.92629911945919   -0.51878067338811    2.63712490966480
O           1.64343944622471    1.19834226720828    0.92001815525880
O          -0.01028438893207    0.96101178978608    2.69521294459169
O           2.15575544301363    1.82916332873202    3.19983439644607
H           2.23226847151423    1.40327860959835    4.05032274055535
H          -0.64776607201603    0.36168731515908    2.12878451128675
O          -1.52285761284003   -0.47788930758534    1.33014216108169
H          -2.37394111172069   -0.58853394935265    1.75948847773899
O           0.47968641785479    1.80554340742678   -1.41608079272894
H           0.95127528374676    1.54208589931737   -0.60413531243315
H           0.57983277135166    2.75653267268382   -1.48371479221759
O          -2.04963586597461   -1.17271273079189   -2.59468669961646
H          -2.19129117981847   -0.91620873985490   -3.50667469615647
H          -1.06133347033926   -1.29321391334287   -2.48804682534143
O           0.79020286770698   -1.94640654109279    0.56171704050204
H          -0.11524199971315   -1.71426316975742    0.79839014536906
H           1.34933176624656   -1.60058377247330    1.26901120157148
O          -1.98606831145283    0.78785417282385   -0.80646197992536
H          -1.71435937658415    0.04068364825516    0.45193911696809
H          -1.13566819568824    1.18917445224317   -1.07201954057284
H          -2.14260644318891    0.06680948510622   -1.46465449850695
N           0.58627051810980   -1.16499875666792   -2.24665550253542
H           0.74486304112682   -1.53310790842132   -1.30885764111291
H           0.81186904118191   -0.17650599359238   -2.21429179101071
H           1.24999821940566   -1.61555194447550   -2.86372618259437
