    26
        -50.44140883  Gyration_radius:  2.52420811951 Dipole_moment: 5.033
 S          -0.46537448051240    1.57467085216351   -1.84125733917684
O           0.14692849011779    0.38185970070672   -2.36368826748110
O          -1.26379263336808    2.34140169038181   -2.72173759977348
O          -1.28445155676343    1.14354586988618   -0.57461410495962
O           0.60803177115992    2.49315073864707   -1.21153370403597
H           1.04751723115115    2.05307579641548   -0.42910562192916
H          -1.42792589849129    0.14091449531414   -0.68758685383511
O          -1.50846820860199   -1.34239074687824   -1.00998043164220
H          -1.14014106731804   -1.22765417691868   -1.89419539751742
O          -0.68177546325313    1.23179726847217    2.11130357060157
H          -1.14665961995990    1.50722772594044    1.30906034698093
H          -0.97417699727891    0.31697999882322    2.26018383374853
O           1.65772425929410    1.53828725919334    0.96920060847269
H           0.82604064887339    1.36684155672381    1.49070539145117
H           2.07946848800468    2.29299609991097    1.38541583287776
O          -1.77535599003653   -1.29712941061806    1.95913636232049
H          -2.02200459860429   -1.36624317918195    1.02860846022789
H          -2.50169736216588   -1.65650207348010    2.47073473128101
O           0.34135643281200   -2.55657126011593    0.34548211585401
H           0.18891340327389   -2.26516622837654    1.24856038681121
H          -0.81211171681972   -1.88519788924615   -0.52177646071157
H           1.10893739229072   -2.02154559371224   -0.00778820678564
N           2.12396504020796   -0.90132333816160   -0.70093630801796
H           2.34398701544954   -0.15356037474841   -0.05254923536245
H           1.54379040888590   -0.49687580858089   -1.43525302421899
H           2.98727502165456   -1.21258896257479   -1.12638908516685
