    26
        -50.44140908  Gyration_radius:  2.524195262 Dipole_moment: 5.041
 S           0.09083719589148   -2.29899578685616   -0.88991811780048
O          -1.26166784881774   -1.97174093705223   -0.52335673974542
O           0.28036215322466   -3.30504497921015   -1.86590147663198
O           0.77645915392588   -0.95770879229136   -1.32796397526853
O           0.91148687705650   -2.66307460781980    0.36957902394247
H           0.98296920236485   -1.88477114055655    0.99253884394228
H           0.00340606923652   -0.33395262224221   -1.55617328942648
O          -1.27062571325595    0.45416862736245   -1.81190085348896
H          -1.83676440782516   -0.32003602071397   -1.70816610786234
O           2.41112938907790    0.79070084600210    0.03406515912969
H           1.90559979970784    1.56931019028664   -0.25341947964666
H           2.21109134562268    0.11415256674305   -0.62766836531647
O           1.35186827068132   -0.64650998135089    1.95363068303924
H           1.75632487656606   -0.01077027878294    1.30153222575691
H           2.07013323076320   -0.93633955261519    2.52003452622552
O           0.72000739040515    2.59021408473141   -1.19878729069482
H           0.95194286142038    3.33035281904736   -1.76170235161520
H           0.13666895158876    2.01632914067754   -1.71048947369077
O          -1.73526924010582    1.92057671480449    0.27796646151978
H          -1.52245641299975    1.04880809867837   -1.03676457979672
H          -1.75020712664006    1.17080537592361    0.93966264546607
H          -0.90938512840369    2.39415821104107    0.41011735122133
N          -1.61111610303792   -0.26170729289909    1.77304352325590
H          -2.31549955600678   -0.50595111760570    2.45671610693846
H          -0.70195673409268   -0.34481726472897    2.21405304171067
H          -1.64533849632549   -0.95815631054030    1.02927250879444
