    26
        -50.45564918  Gyration_radius:  2.41804804783 Dipole_moment: 3.085
 S          -0.99854869856120    0.86352427877555    1.21618861579481
O          -1.39039904040352    0.28773221098926   -0.04785318721593
O          -1.91246494242302    0.66834257515133    2.28945310661713
O           0.40625414546870    0.34615644736031    1.57403543360153
O          -0.74223840302565    2.37554436592667    1.01718613399435
H          -0.15427305084585    2.48375992822340    0.21717689054164
H           0.44608494187550   -0.71966879727302    1.36394293313098
O           0.74650645352496    2.57995385276189   -1.12049600784928
H           0.55745370764899    3.40184445709595   -1.57675248437245
O           1.56681376503457   -1.31459613592140   -1.43566977749161
H           2.26033363470006   -1.88989913109157   -1.76171956788876
H           2.02319864159005   -0.57367143573336   -0.95792043149831
O           0.40298081082722   -2.03072590651493    0.93821174473675
H          -0.58698946604354   -2.19152635332159    1.00348221130371
H           0.64673312813724   -1.93955291294966   -0.00462854061691
O           2.57716599221662    0.74475541974227   -0.10470839661323
H           2.07325812627658    0.64825741415705    0.71648202318561
H           2.21904932223990    1.53927613795166   -0.52503316448141
O          -0.22764999481702    0.56286011838709   -2.40235691783430
H           0.38908135153774    1.83805193090228   -1.70612869374073
H           0.40786521948206   -0.16733210307112   -2.32851556135066
H          -0.85185391545215    0.40514969227903   -1.66664342087777
N          -2.20570906911474   -2.06779213705399    1.29230814265128
H          -2.75208915129738   -2.77992944785783    1.76149354373053
H          -2.64825182482961   -1.85761102865239    0.40596304528173
H          -2.25231167380750   -1.21290343031743    1.84250233760577
