    26
        -50.46194839  Gyration_radius:  2.51152572795 Dipole_moment: 4.758
 S          -1.84918200644535    1.00680015058496    0.26484646393663
O          -2.26126669257944   -0.14052050640094    1.06671134512848
O          -0.59158228592412    1.56473731828479    0.71342515416428
O          -1.88795260291957    0.70825477173950   -1.15567229236591
O          -2.93251098993194    2.13805549497694    0.50793270088179
H          -3.71523202358344    1.81720000489966    0.06951991994653
H          -1.20383414206531   -0.82347223616037   -1.03278201024727
O          -0.78831131152560   -1.70707270367011   -0.96629310130195
H          -1.48250081792712   -2.28747821679940   -0.64844310292159
O           0.21884852614658    0.47736664200433   -2.88955998323779
H          -0.61255446013439    0.71849438855307   -2.44909208742881
H           0.28215700464564   -0.47749685469062   -2.80004605596575
O           3.08623884196682   -0.29480144517508    0.10345551312634
H           2.57410407300197    0.48918194700519   -0.23127606094936
H           3.77914549908910   -0.44877017534929   -0.53923724330822
O           1.62629061727373    1.65552292771089   -0.87671662365298
H           1.25650033109321    1.32881256984150   -1.72039945346129
H           0.85742797861589    1.78489353318045   -0.29806668323449
O           1.23899344783260   -2.03446761652175    0.81165267855088
H           0.56381879860492   -1.15017659373816    1.79010574347454
H           0.60412605165768   -2.00706374707086    0.06767396463490
H           2.00986678114297   -1.48241237149676    0.53231515780250
N          -0.02792072734413   -0.40408199065342    2.34010884695432
H          -1.03221455415017   -0.50022545306049    2.02795314035461
H           0.19899313203471    0.53282808418241    1.96652843889311
H           0.08855152143180   -0.46410793216341    3.34535563026631
