    26
        -50.44926948  Gyration_radius:  2.40433796354 Dipole_moment: 3.106
 S          -1.90701474897278    0.27085259274818   -0.49748802661707
O          -2.30992585386146    1.38092098519783    0.31923487138164
O          -2.90481555816146   -0.63873859828890   -0.94714627002180
O          -1.16463076030184    0.79843892315995   -1.74511588728097
O          -0.82887207029379   -0.52290597025048    0.28516613238549
H          -0.55598737933394   -0.08040129395269    1.15120926518580
H          -0.22916685353794    1.10900790930155   -1.51113217531813
O           1.22469075799565    1.39550846608396   -1.12607207846777
H           1.72050286887570    1.75078421158073   -1.86642545294578
O          -0.17146581882530    0.65997160103345    2.47019783463496
H           0.00359891239577    1.54373108561649    2.03954767786721
H          -0.98767197225401    0.77300322324602    2.96289771066595
O          -0.80702533590342   -1.99677970675153   -2.09143011945743
H          -0.92449919571322   -1.77132817712134   -3.01679577357547
H          -1.59730614205861   -1.66770591377219   -1.63637167878873
O          -0.07450049946060    2.75911702577291    0.94415344296698
H          -0.97595442078584    2.51750607319810    0.66056476486814
H           0.52135710833155    2.47789528664367    0.23468766532781
O           1.65892274116505   -1.09876670233552   -1.11142222780835
H           1.47549608887969    0.39589064023422   -1.07389025124050
H           1.71717054437332   -1.36636946508602   -0.16232885251811
H           0.82206734945893   -1.48199573710252   -1.43476513009023
N           1.64206380641645   -1.74207936840528    1.53292877313127
H           2.41540884782585   -2.19192125258279    2.00593151463382
H           0.84501710712943   -2.36557591309394    1.56238711568551
H           1.39254050669284   -0.90805991495803    2.05147715535894
