    26
        -50.43974559  Gyration_radius:  2.54679549285 Dipole_moment: 5.541
 S          -0.28299447370856   -0.35112791804835    1.96897230225069
O           0.88659363956191   -0.75329846678856    1.25674593468107
O          -0.21133681869303    0.85931793790812    2.71299341780297
O          -1.48273608761934   -0.30200331846813    0.96689265681951
O          -0.75090450772422   -1.50269694728878    2.89973920467587
H          -0.85477714173637   -2.27285115557248    2.30189133061395
H          -1.43171057838479    0.52567154568616    0.33947880104721
O          -1.36267019689166    1.63017909453873   -0.61848493487982
H          -2.21041208554945    1.77006111793922   -1.04469855310299
O           0.82480989129835    2.61504682724394    0.87417510393295
H           0.65381226193287    2.08358957245513    1.66517637939076
H          -0.00776526596473    2.61605498823896    0.38598146016525
O          -1.40186655197242   -3.00889256829165    0.82240810480577
H          -2.26890793467646   -3.40921651688944    0.92439728782132
H          -1.53924814475926   -2.10745210824316    0.49354907306229
O           2.36828032338023    1.84695324714394   -1.20303581424132
H           1.92631002058768    2.04722308489665   -0.35028741897032
H           2.78543231599558    2.66380883595511   -1.48051011055811
O           0.21944233343643    0.71133113960185   -2.34368122977075
H          -0.71836075124850    1.26944218690871   -1.35923378767394
H           1.06475060668182    1.13121107389746   -2.07149973307920
H           0.34154781586551   -0.24382843745765   -2.10776427075671
N           0.73964578506328   -1.75699916186686   -1.41911104025799
H           1.63293900730683   -2.04554870581212   -1.79982464877140
H           0.16250794674361   -2.58605198901348   -1.34516197597757
H           0.91761858107745   -1.42992332867074   -0.46910751902942
