    26
        -50.46301436  Gyration_radius:  2.49206061631 Dipole_moment: 5.499
 S           0.95464252416979   -0.52290635690708    0.40038997874959
O           0.44097223189116    0.50239866459540    1.32215978462582
O           0.19910300910964   -1.75479976231395    0.47206494038003
O           0.76141181328172    0.06980983555107   -1.03773340650486
O           2.39255586316859   -0.68141975096817    0.54088051619127
H           2.84859075459791    0.77646648649776    0.74385523109572
H          -0.26849093334428    0.12449005061029   -1.25946796795117
O          -1.68846017966812    0.16086427787434   -1.48847099482354
H          -1.89410678771424   -0.79055156840152   -1.57640852643542
O          -2.30994853842122   -2.02664524728281    1.56362701528221
H          -2.67913843508149   -2.48449013093363    0.80275287266279
H          -1.35070546836262   -2.00991627180150    1.40945086233495
O          -1.60180606328052   -2.54272243277702   -1.32382220858369
H          -1.20844384853912   -3.08161029160766   -2.01104285185743
H          -0.88752407184528   -2.35398762278915   -0.67806321836462
O           1.84850184896166    2.50027508247172   -1.51924112980837
H           1.51015715656188    1.58384203533419   -1.55548141730419
H           1.11401302807351    3.06428850634004   -1.76980158809293
O          -2.23225094625892    0.62913660403484    1.01333684087948
H          -2.03746328882734    0.42875785571243   -0.58939390008740
H          -2.49936017763133   -0.25108399265398    1.34503251902756
H          -1.29459332067982    0.70420331357081    1.26699469112404
N           2.58553681526134    1.79936876305522    0.95111674078024
H           2.47934317356356    2.30429933018425    0.04339287013336
H           3.20113281245467    2.26767143488966    1.60679997187580
H           1.61633104894597    1.58426118828743    1.32707237449959
