    26
        -50.45903943  Gyration_radius:  2.48515213015 Dipole_moment: 3.816
 S           0.80189012715427   -1.68188796681095   -0.18298904649724
O           0.99774740742711   -0.57985571877277   -1.11034864076194
O           1.24056850132534   -1.33747585701217    1.16270407250976
O          -0.53489083329211   -2.23826918252244   -0.21414028560003
O           1.76948405851964   -2.82933664115599   -0.69489028969486
H           1.44632059683626   -3.60784012140617   -0.25173778129443
H          -1.61115163138556   -1.03614160976252    1.10969612568826
O          -1.18175329506229   -0.37375164108038    1.66309736314430
H          -0.25907380089232   -0.68469858230585    1.69668814978581
O          -2.64000052863235    1.10174311026100   -1.66961894576963
H          -3.56960106663363    0.87513165548577   -1.63046767734264
H          -2.17541151343992    0.30659409081799   -2.02597274711328
O          -1.32339886846542   -1.07329239413684   -2.46974400118984
H          -1.20413050599913   -1.61616814995590   -1.66729234537978
H          -0.43773662563183   -0.73627394996059   -2.64359350527268
O           1.10270962735658    1.83165969850478   -0.30944176109300
H           1.10934237511467    0.91232856431375   -0.73126114190936
H           1.61887246470623    1.68302142656116    0.60954007504735
O          -1.26067341684161    1.97457661018279    0.41703777179964
H          -1.81758149677216    1.77107323964631   -0.37190772739682
H          -1.31339323430447    1.17027295349033    0.98648376601390
H           0.06606213752168    1.98753572640416   -0.02839402273508
N           2.21355453802265    1.18588791110779    1.87845321594594
H           1.74475799341920    1.50962888263446    2.71485636488965
H           3.21104271448138    1.29651556903327    2.00271201472527
H           2.00644426553481    0.18902236647521    1.76053098952953
