    26
        -50.44238267  Gyration_radius:  2.57209899919 Dipole_moment: 6.706
 S           2.30752227469162    0.51574128003225   -0.71704692050915
O           1.03967880867999    0.56019674953355   -1.40947478327297
O           3.47448681930445    0.43624358476043   -1.51271999930427
O           2.35627467499281    1.71677701945366    0.26232007331891
O           2.30049143483608   -0.70699179685651    0.24217274992523
H           1.48051707219695   -0.67514065069535    0.80878659649098
H           1.51597399765275    2.26102801150208    0.11513137991100
O           0.16883792955839   -0.70757596499936    1.72909450852949
H           0.35760830539602   -1.27088676607973    2.48182804021558
O          -2.86622720079825    0.28428170151995   -0.25329065704607
H          -2.42556847596591    0.84100886364723    0.40471197217774
H          -3.80899702809858    0.41986389513606   -0.15057176993735
O           0.09324380389883    2.76007541306953   -0.27875749700435
H          -0.50849343114793    2.43798241107128    0.41828025458485
H           0.06678489227463    2.08934469675040   -0.98112062009327
O          -1.30946506707381    1.53847208256343    1.73611556130081
H          -1.26606917354278    1.98530093283627    2.58282805131515
H          -0.73234624083950    0.74611635705077    1.79751113484160
O          -1.37627694948063   -1.98315060826801    0.19668982132658
H          -0.46937352350561   -1.25587660137053    1.11831890379492
H          -1.98601723171087   -1.28368066119032   -0.09984196744673
H          -0.78378612936016   -2.16944863829309   -0.58107025186157
N           0.38719346665078   -2.19516817573918   -1.79932797784872
H           0.14727632236737   -2.49507160434138   -2.73597928289912
H           1.25213468358377   -2.65373541187650   -1.54016534323633
H           0.58459595541863   -1.19570614923400   -1.83442197726836
