    26
        -50.43281575  Gyration_radius:  2.69382027364 Dipole_moment: 4.058
 S          -0.05776071859489   -2.52932689448131   -1.14429062489553
O           1.35182639726408   -2.66789210874924   -1.31177007477185
O          -0.67074008628685   -2.99499764910691    0.05217986440354
O          -0.47031275503198   -1.06489536056971   -1.38305612765352
O          -0.74025445104570   -3.26124282530447   -2.36968637665898
H          -0.09670240623560   -3.25333184579731   -3.07476338863854
H          -0.95649411356916   -0.76678936994348   -0.47928256022225
O          -1.54205848486039   -0.52697993014944    0.77643038288756
H          -1.68818609203162   -1.45587912922903    0.99771561401184
O          -1.69785083876449    2.11543154760529   -0.10151268084097
H          -2.40071123837716    2.29056448909574   -0.72887623018622
H          -1.82714592875396    1.21182455389749    0.22644366253464
O           0.70196928018152    1.50540033163174   -1.61356239275549
H           0.34191948809151    0.63472954040097   -1.81654195314106
H           0.03294549559974    1.94025055753729   -1.06940131262586
O          -0.00304507848383    2.87002105514937    1.99270671329725
H          -0.53293773495337    3.28640497920694    2.67390206163105
H          -0.55934382204879    2.80517952767599    1.20272140017311
O           0.44843270063064    0.17350438938069    2.13095204639823
H           0.41878737209956    1.14770426040375    2.18730200845386
H          -0.73192372004255   -0.23905157571146    1.38871660794811
H           1.19197643975684   -0.03362234412999    1.48970290396640
N           2.21903642695939   -0.27521550801983    0.22290845755468
H           3.20591034147368   -0.22440441352111    0.44121727362280
H           2.01003528628678    0.47078853338935   -0.43852186743101
H           2.05262822062205   -1.15817481093427   -0.25163339709923
