    26
        -50.43281585  Gyration_radius:  2.69366629375 Dipole_moment: 4.054
 S           1.97165740222684   -1.93742514147049    0.26061963153470
O           2.81307429441179   -1.45951725313733   -0.78719073384392
O           2.17431312447156   -1.47197774058007    1.58974131036066
O           0.49402005616739   -1.73461809542795   -0.12287492678767
O           2.09151622125100   -3.51504390288353    0.26267178465156
H           2.34663215476257   -3.76228696825323   -0.62341352905504
H           0.08754403289248   -1.13426270178042    0.66251194968629
O          -0.28261516610230   -0.32748322510225    1.75253190131074
H           0.44762063430463   -0.59340284367971    2.32630194563469
O          -1.07765832353761   -0.33527607391321   -2.02126903187480
H          -1.73612587814353   -0.04941714275330   -1.37511015838718
H          -0.55695332486096   -1.01256105481242   -1.57510516287227
O          -2.68845542746664   -0.03549082614871    0.37326779071006
H          -1.95885430577886   -0.19972763044002    0.99090244636420
H          -3.27675463814616   -0.79013682892662    0.42530756958219
O          -2.19644906679881    2.71132870333660    0.17480178797372
H          -2.52351902535525    1.80204594956958    0.11173769975735
H          -2.75068546366306    3.16382829433974    0.81213106332521
O           0.32825778024704    1.95551985195202    0.91514697008139
H          -0.50169208565174    2.37499246037491    0.61787117272663
H          -0.02952000535625    0.65109384425589    1.44761212842787
H           0.82322927607050    1.71934201982568    0.07465032119115
N           1.42720121428179    1.11205125501061   -1.33349190854259
H           2.03002053970155    0.30766511062963   -1.18469527528879
H           1.92939873083700    1.76919045147237   -1.91672125894130
H           0.61479723922252    0.79156948854513   -1.85793547772695
