    26
        -50.43281586  Gyration_radius:  2.69377474714 Dipole_moment: 4.049
 S           1.89738029688415   -1.82835758899468   -0.87646845915016
O           1.22059127465496   -2.20623275870638   -2.07376602651055
O           2.83328007401605   -0.75724799692621   -0.90835180718162
O           0.87173852011398   -1.56593202273242    0.24198760534550
O           2.63777899627604   -3.11955366014655   -0.34000303157024
H           2.15335470807920   -3.86546999548328   -0.68677141935298
H           1.05642750261555   -0.55962492747722    0.55194391992204
O           1.40761570844850    0.77410146600490    0.82254864261566
H           2.29099433017673    0.72554357369187    0.43459925050273
O          -1.98573703467184    2.74021038874913    0.86672598873819
H          -1.77974965325886    2.04527790771734    1.50887586732867
H          -1.91777114211826    3.57674889483411    1.32904886526023
O          -1.91441523116739   -1.16746744599462    0.57562977270538
H          -1.81024038099176   -0.43754933800084    1.19947544642319
H          -1.04275358836456   -1.57285627766836    0.50622566251714
O          -0.84279825212174    0.75195973413066    2.46922648996791
H           0.03037622807986    0.80917717761710    2.05080549228146
H          -0.72512957052778    0.29941081430818    3.30565550747822
O           0.01272235252967    2.00933219254125   -0.85505352475266
H           0.84856694887481    1.33547169625970    0.12454703225059
H          -0.33746433812467    1.24591546008253   -1.40454765725935
H          -0.76123921229557    2.35705435635295   -0.37206612753633
N          -0.92865677274216   -0.15451622450381   -2.04076476626350
H          -1.46169765494802   -0.05896164761760   -2.89567824715499
H          -1.55166004207429   -0.53148337105778   -1.32841617980606
H          -0.20151405734142   -0.84495040698735   -2.20540829678675
