    26
        -50.46542436  Gyration_radius:  2.42132471471 Dipole_moment: 4.621
 S           0.97272490204550    0.13191267079317   -1.77955738840069
O           1.42741331081940    1.12824946659521   -0.83919523413671
O           0.27246831136474    0.65217798235242   -2.92403901233086
O           2.27501013736449   -0.58612495448238   -2.35790493600944
O           0.21984339603542   -0.93490149510333   -1.09245650113117
H           1.69567073091749   -1.15933144201509   -0.12235386334197
H           2.17830500935636   -0.48277923622514   -3.29909455458773
O           2.42490787736081   -1.07955782373357    0.51081678355408
H           2.92773497078653   -0.32365524429080    0.19680292561728
O           0.15667527303175    1.92128923280162    1.33317360768710
H           0.67143201330304    1.77916609730098    0.50853275882854
H          -1.17682687492050    1.41967816417139    1.04292743020957
O          -2.08424964038419    0.22935980381165   -1.75413991868374
H          -1.38508277679368   -0.42670308715153   -1.57270916940203
H          -1.66461606224828    0.77394842299043   -2.43413723870491
O          -1.07623387841644   -1.61494014926077    1.14598388381164
H          -0.54922693510357   -1.39991649781393    0.34561616549982
H          -1.23813773061259   -2.55848677904929    1.10835333948282
O           0.92188210308231   -0.26039681749627    2.61534830947923
H           1.62602361392850   -0.56141059646625    2.00507496042802
H           0.51191924478298    1.23618999174005    1.95697958696453
H           0.17266817139825   -0.83636616763366    2.41308618668407
N          -2.12534048363157    0.88604996434914    0.81659107455632
H          -2.92845850226914    1.34368984503898    1.23199926627060
H          -2.00579936977771   -0.07396055405408    1.17412997703320
H          -2.22070680148053    0.79681920301033   -0.22982842939975
