    26
        -50.45651719  Gyration_radius:  2.48757630805 Dipole_moment: 4.662
 S           1.55125675269522    0.46221725066657    0.87805065346839
O           0.72481208375125    1.10571368239883   -0.16154958418573
O           2.02741969573306    1.38894245340885    1.85896595706517
O           0.60846896182578   -0.53211325471678    1.65214552031310
O           2.57858590851933   -0.36279626907932    0.23626187909897
H           2.35512754277754   -0.36647060650938   -1.25147667765962
H           0.28865438205852   -1.23312690255354    1.04430469549562
O          -0.67144635808163   -2.22643737310786    0.04321571794529
H          -1.26144047977481   -2.68226123916302    0.64533449524962
O          -2.66844588723903    1.08923010390424    1.38548757546012
H          -1.83039028397318    1.33444800431256    1.83928323988606
H          -3.16652137296153    1.90528880749681    1.31778117653820
O          -0.21052873777385   -1.62077570451331   -2.65931166601742
H          -0.90542760971576   -0.99082662489554   -2.41758898229867
H          -0.19068167202293   -2.25272921924413   -1.92729577120672
O          -0.45320664316523    1.89939573627469    2.69976717795360
H           0.44283989127320    1.82894025331402    2.31547472365914
H          -0.40726915429736    1.39885569778829    3.51747373948773
O          -1.58308954634034    0.05240893775512   -0.81619092831795
H          -0.74299579415664    0.52763471741352   -0.61571442984843
H          -1.15272759948776   -1.40214739716293   -0.25901908232102
H          -2.17824853793988    0.38120263216166   -0.10788725913194
N           1.86019161665340   -0.02096717903837   -2.15220505289846
H           2.49944395187985    0.28994424385571   -2.87446233731593
H           1.32622467231167    0.75495571127483   -1.69467671359993
H           1.15939419739532   -0.72852643204134   -2.49616807668640
