    26
        -50.46200625  Gyration_radius:  2.66474258067 Dipole_moment: 3.979
 S           1.59867468429587    0.24445298098787   -1.01155597003287
O           0.51755247964500    1.21054892500451   -0.80580117105979
O           2.78824394181626    0.55227706335723   -0.26654600649810
O           1.10543573269373   -1.11430624026046   -0.75722965323381
O           1.97529203749903    0.30215387059926   -2.54268784141992
H           1.16019913875235    0.10797331955178   -3.01899641661661
H           0.93097593117455   -1.28707917351620    0.80020180276969
O          -0.78590378998280   -0.23667016094282   -2.51735870606803
H          -0.44564435009214    0.43825412234003   -1.88625037543823
O          -2.95395671673460   -0.18812574956960    0.82994448131473
H          -3.79541095297425   -0.02656802022073    1.25845340921440
H          -3.10391098051877   -0.03935929877994   -0.12997254221579
O          -3.31667591746271    0.36501753533852   -1.78005663823131
H          -2.47459902376185    0.06041484105837   -2.17847911274051
H          -3.37693550574192    1.30089038152105   -1.98020348877545
O           3.27552994477721   -0.15009937586751    2.22310791610279
H           3.41994286618959    0.68133717166550    2.67918872669389
H           3.25176630305882    0.07836685794370    1.26505124318158
O          -0.66227471405815    1.00527699897197    1.58961088013166
H          -1.54250523335078    0.64235223425195    1.35284328998780
H          -0.52608631270785   -1.07320815340835   -2.11252940324278
H          -0.24779505967118    1.25786101787862    0.73857882448168
N           0.82134286874722   -1.11227873272497    1.83946764543166
H           1.77115853818586   -0.83698572727049    2.19069037578641
H           0.45094815289356   -1.92380577891386    2.32120059854079
H           0.16463593731568   -0.25869090902409    1.89932813190162
