    26
        -50.44096508  Gyration_radius:  2.57290843803 Dipole_moment: 5.620
 S          -0.16874465872338    0.14801431389243   -2.23358210576312
O           1.09311255456744    0.30789182097464   -1.57321343397923
O          -1.00522393350541   -0.91338886932831   -1.78772022604026
O          -0.91994685553771    1.48370378365405   -2.25592849411072
O           0.10977870794129   -0.06281450359229   -3.76068391465773
H           0.77525224758695    0.57639176574247   -4.00478781172299
H          -1.15488837727642    1.75696144079717   -1.28595884729858
O          -1.33751742917029    2.09977287394489    0.13699002744706
H          -1.61142212292927    3.01391508611575    0.23993924894725
O          -0.12829141961370   -1.69838446366282    2.20807341014633
H           0.33367219063275   -2.10100145482602    1.44370559641491
H          -0.95805685611518   -1.34748097936692    1.83635545115593
O          -2.16431947168760   -0.55607973089426    0.74519175650166
H          -2.06190107630890    0.40240085457501    0.72187201644879
H          -1.91847096975769   -0.86907167294311   -0.13513422719677
O           1.38594850440586    0.35432529570778    2.78098223492429
H           0.84238966818602   -0.46151026766425    2.59067770715230
H           1.10765988046028    0.65935451204260    3.64500130326983
O           1.11367932223874    1.89711157965764    0.67359604810354
H           1.36267007568549    1.32984445996953   -0.07202980411156
H          -0.35144554588150    2.05150854193086    0.44812814860756
H           1.27092104624887    1.35316803544229    1.49035157564840
N           1.02392279225425   -2.37545862594530   -0.19626863232512
H           0.23210894072042   -2.14985095201140   -0.78924113073256
H           1.41731264364204   -3.25152571855284   -0.51605340228077
H           1.71180014190309   -1.64779712562559   -0.35026249450072
