    26
        -50.45476397  Gyration_radius:  2.4737818143 Dipole_moment: 6.129
 S           1.45355869673077   -1.83585297683159    0.02898660536398
O           1.21029225603900   -0.86945676897339   -1.07596397579607
O           2.55834811446560   -2.69613255598859   -0.20879506084347
O           1.54107297997387   -1.07216429728835    1.29341007471284
O           0.15677886931221   -2.70384746017210    0.11398252497956
H          -0.61451413535450   -2.10576308369874    0.22814201603252
H           1.97806226696395    0.42709519593425    0.94029880194136
O          -2.02223097964315   -1.20863143028594    0.40502058036591
H          -2.78719331140759   -1.73556740688623    0.17072990583344
O          -0.42201515929054    2.27190130301002    0.93969535966310
H          -0.53916132694090    1.46154595347846    1.52877975375101
H          -0.69864904823803    3.02508138480408    1.46239782409451
O          -0.31805122009890    0.22708889311874   -2.93454550145842
H          -0.54605164876159   -0.40780340070942   -3.61475552154387
H           0.27993862897032   -0.24057161939766   -2.31581137060258
O          -0.59286441152075    0.09926184878365    2.33729200410055
H          -1.30675475939574   -0.40898667125163    1.92487628000402
H           0.22296627045447   -0.39540836843178    2.10091670019390
O          -2.01990872042982    0.98131277535048   -0.99036003712436
H          -1.46799254083225    0.79592093331774   -1.77822530103268
H          -2.05936406623452   -0.38162927118392   -0.16324261356955
H          -1.50436234740511    1.58952400314967   -0.43924462656161
N           1.92341459212048    1.18243261115804    0.19633452182082
H           2.79428261934819    1.67601209733383    0.04129302031848
H           1.12428589776332    1.81507888721318    0.40894781794910
H           1.65611245329997    0.50955941456861   -0.60015978256087
