    26
        -50.44835643  Gyration_radius:  2.64589559723 Dipole_moment: 5.196
 S           1.42252188253950    0.48762887396188   -0.17429285299955
O           1.17950644600891    0.28757579959771   -1.58077929726507
O           0.57925663035494    1.43854660086209    0.47507435794766
O           1.32887237860684   -0.88474497264080    0.53945209711419
O           2.89267451923868    0.85069121898110    0.05029803639209
H           3.40857228067444    0.22185748836828   -0.57865305180327
H           0.37579204672707   -1.24882866436099    0.53456859115202
O          -1.03697263537935   -1.80782854614109    0.50863214229433
H          -1.06270525985974   -2.63739465706915    0.98926050984981
O          -3.14917353157858    1.31101899730439   -0.36784736992278
H          -3.99738280623004    1.23021132298592   -0.80644168113614
H          -2.49676424348398    0.87136549655940   -0.95770303755123
O          -1.48332038545957   -0.23663966589521   -1.80339540503634
H          -1.45549943687969   -0.98631668201200   -1.19530519456731
H          -0.56448413706745    0.06805458913031   -1.87664445249226
O          -0.72764396686877    1.52740669102279    2.81448147233060
H          -0.17512617097178    1.50906710262786    2.01026577166103
H          -1.10777825343433    2.40774365793508    2.84396930106653
O          -2.51881958732138   -0.18592532466099    1.77607775569276
H          -1.90576971319479    0.37736312524969    2.29622648307309
H          -2.85154192144192    0.40120783913852    1.06220160446930
H          -1.64405920110573   -1.16231476552043    1.03723906948215
N           3.76343315358311   -0.80208297965368   -1.69815410865438
H           4.50232989911300   -0.58786342988266   -2.35438331361932
H           2.86162576312181   -0.68997752868887   -2.15427974374480
H           3.86245626033769   -1.75982158722501   -1.38986768376419
