    26
        -50.45315585  Gyration_radius:  2.46425471592 Dipole_moment: 6.333
 S           0.22326118972922   -0.61336374202792    1.92663368650018
O           0.00762024032985   -1.72330563025777    0.97992738820734
O           1.54259735545856   -0.56686068522268    2.47530883757555
O           0.05282423510568    0.70123158865444    1.01968386526834
O          -0.89273779113496   -0.52387936685002    2.85863845229000
H          -2.09763314220955   -0.88156763392341    1.97738834754721
H           0.96512924548954    0.82599802922285    0.62668895988119
O           2.49163541680681    0.59739060436451    0.20659614854467
H           2.66059102805982    0.23733049448481    1.09061066436475
O          -2.15456740738258    0.96110803062407   -0.45898395904680
H          -2.44518945508155    1.87042017913023   -0.54763776527631
H          -1.32407015837766    0.98509311835163    0.06506368750272
O           1.49264736093506    2.26575817611419   -1.78328983247595
H           1.96104919165307    1.85512493478873   -1.04010605775243
H           2.15391832800828    2.43589384400517   -2.45644153797342
O          -0.17013239178537    0.15540490247408   -2.40507288409367
H          -0.98499090933066    0.30876601981847   -1.91304554635450
H           0.36365308470845    0.96310311425457   -2.28820536335375
O           1.64494454774355   -1.44937988511402   -1.14538612138768
H           2.34937281180709   -0.20588995751456   -0.37758997414147
H           1.10649377427642   -1.76649746633675   -0.39848899485408
H           1.01073262118919   -1.01917263697686   -1.75349377887715
N          -2.47696675181255   -1.27304316136681    1.04545862768773
H          -3.23499407334267   -1.93910187975583    1.14341419982617
H          -1.54600383047753   -1.70722674847646    0.74799184145293
H          -2.69918452034804   -0.49333423246763    0.40433710893343
