    26
        -50.44081637  Gyration_radius:  2.7146441898 Dipole_moment: 5.292
 S           1.81046235951217    1.07760193934701    1.12315589214665
O           0.76465440478798    0.27467716287306    1.71366510999535
O           2.53183409623568    1.92964921385324    1.99341179696180
O           2.74309804117946    0.12303049169055    0.33290952580524
O           1.19867739233811    1.92668650888420   -0.02957112009712
H           0.97725570338331    1.26915878958945   -0.75365431597688
H           2.60494954309349   -0.85850237515036    0.67595595325325
O           0.60408706653173    0.15213519069492   -1.81660344238710
H           1.44097952821015   -0.20066279329700   -2.12511250818697
O          -2.89572704204647   -1.18871866277506    0.33387000006166
H          -3.12505110809884   -0.30119585378083   -0.01913689208815
H          -3.07819875160476   -1.14618380972335    1.27414681807868
O          -3.46756541696111    1.28640208537321   -0.54620582188165
H          -4.15688121455016    1.39355694928621   -1.20311410210571
H          -2.66778050242053    1.71471584837652   -0.91851042555550
O          -1.23425486617207    2.32344131864179   -1.65938549135156
H          -0.74648019472527    1.57612307107107   -2.02783486496938
H          -0.64607164513376    2.72729486886749   -1.01388330495896
O          -0.26105027898507   -1.44671974093767    0.00844117012096
H          -1.24537340480907   -1.45772846404600    0.05403316715372
H           0.20965582095491   -0.54483760403142   -1.20468997363426
H           0.02057496604752   -0.83284174181125    0.72354791971885
N           2.25540279135823   -2.23380561014183    1.17628134877355
H           2.92080709174051   -2.98364317982934    1.04580155530692
H           1.38509591437269   -2.45694627653602    0.70055517936960
H           2.05689969580209   -2.12268734640591    2.16192679655795
