    26
        -50.44646996  Gyration_radius:  2.48293983906 Dipole_moment: 5.866
 S           1.45638806761485    1.84368388337820    0.35704749817278
O           0.29790390940575    2.00032639000233   -0.48745709952262
O           2.10283912097806    3.00937572366847    0.82959243965780
O           1.02640939522864    0.96143708033114    1.58324090516765
O           2.46641955035580    0.92013185827664   -0.35411190577729
H           1.90996142386479    0.36751478284217   -0.99919419617683
H           0.05205480064426    0.73670839942363    1.55999509021286
O          -1.48302544796762    0.31078799585385    1.60467955775285
H          -1.89389262979881    0.61057339315582    2.41693290865475
O          -2.20322210592659   -0.64788387276967   -1.96513479976661
H          -1.71313223366556   -1.22646739029739   -1.36012895584591
H          -2.87996605499402   -1.18430542318830   -2.37887537332664
O          -0.53681312659843   -1.75983502440735   -0.00662730941827
H           0.32900725327759   -2.01164563878398    0.39938845766683
H          -0.94806032701256   -1.17197075835001    0.64436961022543
O           0.86251833797214   -0.34967092607555   -1.85725175380651
H           0.27289432426182    0.37946948584753   -2.07916813282299
H           0.34801009276373   -0.93553482234350   -1.25838382696401
O          -2.35906030285541    1.61561200204256   -0.42262566390412
H          -1.91011916691904    0.83708894318520    0.85036365212753
H          -1.48573123627368    2.01496922735238   -0.57839160522167
H          -2.44344546155296    0.91166442762659   -1.09141431483178
N           1.93355936580163   -1.88259041679980    1.05591969842909
H           1.92016076436644   -0.95300535800483    1.46574820363069
H           2.61828520746086   -1.86605583981106    0.30939691505199
H           2.26005646959440   -2.53037811216096    1.76208999066331
