    26
        -50.46233090  Gyration_radius:  2.42597187341 Dipole_moment: 5.823
 S          -1.54196155788853   -0.75863018500388    1.06846144113444
O          -2.82742233596598   -0.98718172758876    0.47045247238138
O          -1.39231368444969   -1.09133502760969    2.45390604432010
O          -0.53818683930049   -1.82352704166856    0.30861964766931
O          -0.95978531986230    0.53609413959656    0.71773579479889
H           0.29568273058753    0.14162357491593    1.77069690732340
H          -0.73028535027839   -2.60449705770424    0.81857287073377
O           1.14213871949770    0.03195339945421    2.25084063543997
H           0.89436371249719   -0.44392275558891    3.04726219627460
O           0.99481227268142    2.51774668137220    0.91755406579536
H           1.40292019059026    1.98401863126268    1.61234396149525
H           0.08010962091416    2.20074549874549    0.88402039330928
O           2.08763574362192   -1.03127402558246   -0.05726997680030
H           1.24013740415359   -1.49102366245259   -0.15381921699157
H           2.05078400453454   -0.68169703659380    0.85419919160249
O          -2.18868578503307   -1.37474331733020   -2.08021102749597
H          -1.64576958330447   -2.16017365817121   -1.99404999691093
H          -2.57968518859341   -1.22347585894300   -1.19312569094978
O          -0.96415134184532    0.99720311939539   -1.89643511222783
H           0.57835016831957    1.11164556549807   -1.73907409146381
H          -1.39316740119026    0.18983200170313   -2.24573817157111
H          -1.14782582964455    0.94951012371170   -0.93675086411705
N           1.57105147267950    1.23116949587229   -1.34926861127752
H           1.47108784750952    1.88415921693051   -0.52692909174029
H           2.21157991396425    1.59343896485572   -2.04583822154404
H           1.88858643576867    0.30234094086970   -0.95615551919002
