    26
        -50.45146363  Gyration_radius:  2.53175347073 Dipole_moment: 7.049
 S           1.93944343786426    0.34071159936155    0.41491603422896
O           0.73109281956469    1.06668697024828    0.06652735636953
O           2.43636135248955    0.59905554036822    1.72238639879174
O           1.64584579453174   -1.17581314020323    0.22686601072097
O           2.99345225825903    0.57961088113309   -0.64926797578097
H           2.51530818073057    0.31308261929577   -1.57316347680773
H           0.70739028126997   -1.44140442015589    0.49109127950187
O          -0.74197425853636   -1.90077363524359    0.77477498501683
H          -0.72933311096206   -2.68781005093351    1.32161814512683
O          -3.12234118629818    0.80717033713384   -0.28196351693673
H          -3.92723941000510    0.44580044196146   -0.65506352885255
H          -2.39067537713732    0.53431593640431   -0.86591993791153
O          -0.87868591148579   -0.26285495807379   -1.51629757075805
H          -0.35587804285151    0.34244438782021   -0.94482944979020
H          -0.96258659862175   -1.07246773741778   -0.99530004991964
O          -0.04766859019324    1.62969301119162    2.59065097934316
H           0.11933951534588    1.70737333379679    1.63838560554918
H           0.80077063685591    1.35433159359706    2.95250793845214
O          -2.02823967427006   -0.11858582163193    2.05835537282456
H          -1.38602700636157    0.54132446088321    2.39625259892615
H          -2.52166674448488    0.33482611405083    1.34850680082307
H          -1.25680903124051   -1.19542967584041    1.31127619308790
N           1.75539187221030   -0.10863196117620   -2.75391660770465
H           2.10349868759658   -0.99768947030391   -3.08792370166780
H           1.83007249808166    0.57636469094336   -3.49447024281806
H           0.77115759764344   -0.21133103721428   -2.49599964981674
