    26
        -50.44404996  Gyration_radius:  2.47988328542 Dipole_moment: 5.988
 S           1.02782713178323    0.51163077986003   -2.09712557943894
O           0.59911082398059   -0.74874337145663   -1.54431691515729
O           1.18101919022753    0.57736024881822   -3.50209208291503
O           0.04263464107985    1.61149951414938   -1.58530147697730
O           2.33650563919294    0.95187524226395   -1.40279894823794
H           2.09590858532410    1.08594174515194   -0.44877543488502
H          -0.85452004630005    1.22245637066735   -1.37444357287288
O          -2.26013357185305    0.67098323958154   -0.89456386585234
H          -2.95336210944866    0.80285492812077   -1.54273058004722
O          -1.11586127643422    1.24864443514775    1.51299236565814
H          -1.63420129188920    1.86797736797996    2.02908573732435
H          -1.59845616575701    1.10023802635741    0.67973227196067
O          -0.93262122847234   -1.60819590746758    1.86877123090835
H          -1.02122087235836   -0.65570213719137    1.99390359332337
H           0.02548100340473   -1.75026451309886    1.68437650004497
O           1.57219815366757    1.46509207160108    1.03810075953967
H           0.61922685644764    1.30490323057565    1.19274071522594
H           1.70486569413311    2.41188629237159    1.12160970330301
O          -1.74834262712247   -1.79144747323197   -0.64808620228815
H          -2.12881145753805   -0.35027097873331   -0.80909830524396
H          -0.88134335059567   -1.73180389327664   -1.07936360494664
H          -1.54617938973117   -1.87383374613063    0.31995887806557
N           1.64496007347540   -1.63222033720989    1.02617865089902
H           2.27456471119055   -2.42415086634670    1.03346434681787
H           2.15290395352604   -0.82632711171426    1.37029018394815
H           1.39784691005449   -1.44038314677901    0.05749162183982
