    26
        -50.45462873  Gyration_radius:  2.52329043993 Dipole_moment: 3.149
 S           0.65874337855516   -2.28739348206935   -0.94820635895717
O           1.76609601019224   -1.77230238292723   -0.14204430940541
O          -0.60165767340357   -2.22530893148515   -0.24065466795937
O           0.62801360230040   -1.66400050207476   -2.25706043371217
O           0.96878433296623   -3.81833254305382   -1.18462510781665
H           1.76486511409678   -3.76008151206560   -1.70128001479769
H           0.65038928981880   -0.08468979654643   -2.09915823970428
O           0.57631258380707    0.89999464367240   -1.98327038637576
H           0.86383952536870    1.28362208374811   -2.81314936319749
O          -1.10461345404369   -0.75007768682751    1.91715646131576
H          -1.02080973526585   -1.56784853443909    1.39038031370961
H          -1.52696493515440   -0.14026890829957    1.28896500833588
O           1.36132221758914   -0.16752522991359    1.72656344811309
H           0.37552243439367   -0.37127941647430    1.94763589562347
H           1.60704066276124   -0.86131801024744    0.99710182168018
O          -1.74385812210500    0.23073593521425   -0.60156183774340
H          -1.09702641289233    0.63924106395989   -1.19550256150562
H          -1.54794787763997   -0.72039661573168   -0.65591500419533
O           1.16674847201127    1.95160610902949    0.44241714558065
H           1.35809853843881    0.78120042599423    1.21633422689935
H           1.05884990645000    1.62704440194500   -0.47390671561722
H           0.27038117411289    2.29241946137109    0.71546586371797
N          -1.34073647902525    2.59881154337809    1.12461389352783
H          -1.65381034893499    3.54106634665959    0.93094770979751
H          -1.58494449414506    2.37943163523756    2.08229287762964
H          -1.85263770024914    1.96564989195033    0.51646033507539
