    26
        -50.45146371  Gyration_radius:  2.53178238084 Dipole_moment: 7.045
 S           1.44996321192944    0.05979749285367    1.39363455384794
O           0.47449672346534    0.93153430911672    0.76352410973211
O           1.22847349761719   -0.18362180825531    2.77739295744135
O           1.46984179983591   -1.27587744015956    0.59550372412002
O           2.84513097550900    0.59220837079381    1.12821438181882
H           2.90094091839476    0.69344407316952    0.06071989655283
H           0.55914621095275   -1.56178971785384    0.26395752878563
O          -0.78244833693419   -2.00557001272280   -0.36467266725073
H          -0.93532636763726   -2.93277391514522   -0.17615450347818
O          -2.68394897206049    1.03608666267910   -1.48441016304053
H          -3.16304134544898    0.87496514578574   -2.29811920256502
H          -1.73541651660370    0.94103575147956   -1.68934791003116
O          -0.01135276783666    0.33248091514543   -1.74056004835650
H           0.09775349358698    0.66914711049438   -0.82349105216573
H          -0.23312091399488   -0.60147185662621   -1.62890209540535
O          -1.47389303685867    0.62565803473699    2.60882916658385
H          -0.88484057073212    1.02006250648940    1.94688539102846
H          -0.87345610482460    0.19177096161894    3.22349022411472
O          -2.73157705613905   -0.70839593512860    0.63373279849453
H          -2.87887177793616   -0.00830623801349   -0.03040477127817
H          -1.57234379323247   -1.50169010276300    0.05066979419087
H          -2.41392161066452   -0.24619934234013    1.43843756410035
N           2.85266450219948    0.75639845360720   -1.40349599947643
H           1.88566043557566    0.62633238008881   -1.70960897488260
H           3.42562856693524    0.02262155267504   -1.79903490313173
H           3.18385885487714    1.65215263824255   -1.73678978975205
