    26
        -50.45782106  Gyration_radius:  2.49149237093 Dipole_moment: 8.381
 S          -0.37372616762106    1.52160963563912   -0.62057718633264
O           0.09296304086150    1.09401138542464    0.71167717800265
O          -1.32663881984657    2.58545838907330   -0.57484609002971
O           0.77821138471620    1.75257778819564   -1.49635241654460
O          -1.13987295760661    0.27798401898319   -1.22878706138614
H          -0.53707704130724   -0.49417698806216   -1.22141817815510
H           1.99048768284312    1.29387381158050   -0.79557223047246
O           0.28217413831224   -1.96909173128645   -0.86940563101319
H          -0.19888798241236   -2.73376061673271   -1.19109792104860
O          -3.05399920561362   -0.80949264427779    0.62129876335321
H          -3.11465876142853    0.05127844235907    1.08721655774583
H          -2.83369823760997   -0.56888203826135   -0.28508090901373
O           2.94386829092075   -1.65610246449036   -0.90941307081885
H           1.99048974305391   -1.89057535055809   -0.88131520692071
H           3.21314879101008   -1.72526857850297   -1.82704054254232
O          -2.61357022978694    1.67208455264868    1.57585772505988
H          -1.85402178621092    1.62725033213945    2.16116537514343
H          -2.28137161660587    2.10882512492387    0.76717577872055
O          -0.58844639630143   -1.37457974785921    1.44460779444583
H          -1.56298350281659   -1.35347699039626    1.28503726400755
H          -0.00988987367780   -1.84665107484321    0.10275163851865
H          -0.32533126567858   -0.43581007930694    1.37108838337254
N           2.55838780801182    0.82837219001810    0.01173165222954
H           2.84840808411035   -0.13889763809352   -0.27366458371662
H           1.77637292865722    0.79492069980235    0.70185782638855
H           3.33966196187657    1.38851956179240    0.33310509103846
