    26
        -50.46044997  Gyration_radius:  2.45576460038 Dipole_moment: 6.768
 S           1.19944514732544    0.96290584696489    0.27418126650600
O           0.28218860959627    0.99965879266451   -0.86529114707167
O           0.81332386714970    1.84378303537921    1.33830508982687
O           1.16657385720704   -0.52790803365332    0.80222778187788
O           2.58966247247260    1.11188350877368   -0.16289298785627
H           2.81315088743494   -0.10607801245849   -0.82881849579444
H           0.26945706804441   -0.93990887229724    0.67169067848117
O          -1.04985260690699   -1.79626368096833    0.31637700615147
H          -1.18344242684469   -2.45701147872982    0.99791499476859
O           0.36020550106221   -1.31025775445260   -2.03122744199771
H           0.23444179468286   -0.36660815257212   -1.76305686656996
H          -0.20163841784485   -1.79342331753141   -1.40704326883326
O          -2.18531398342343    1.98577138875894   -0.82237032253616
H          -2.42981205838388    2.00336222567646   -1.74882281921884
H          -1.23748540959442    1.73986409736574   -0.79711935605993
O          -1.20980696719749    0.99933002731071    2.81080205109097
H          -1.53426739965180    1.78556398401674    3.25339256308054
H          -0.42696200134598    1.29595496015359    2.29569791418676
O          -2.78889826027189   -0.01443522407590    0.88443990011241
H          -2.33598870237242    0.33131169343714    1.68319201681395
H          -2.73372903845015    0.71858427077115    0.23844224325825
H          -1.78719448039317   -1.10997723280611    0.46679150608794
N           2.86289674707158   -1.11919153388667   -1.30462237158567
H           3.53804600497552   -1.13505570703615   -2.06253023815893
H           1.86416866689845   -1.31535408429537   -1.65935159538118
H           3.11083115877994   -1.78650073648620   -0.58030808113669
