    26
        -50.44410004  Gyration_radius:  2.49532127339 Dipole_moment: 7.232
 S           1.79237226189654    0.76533728177533   -1.51544608121643
O           1.63953965134355    0.19796846495793   -0.19847022771593
O           3.04583967412748    0.60673543894640   -2.14977003369056
O           0.63743190433070    0.20618469727006   -2.40268431003441
O           1.42320089998359    2.26756488179304   -1.45566785907812
H           0.52596004911748    2.30029392132833   -1.03799410932771
H           0.25718805178949   -0.62865869107874   -2.00525639688872
O          -2.06267634006757   -0.16421596449579    0.07223388647453
H          -3.00873244233113   -0.23032930272330    0.20998409300481
O           0.58688469910005    1.57075189281295    1.90221662048108
H           0.06582547462350    2.21045548707708    1.40855659752955
H           1.10189383734008    1.08271037736899    1.23559242894615
O          -0.99561136613019    2.22930790034424   -0.45361032981471
H          -1.56623755264363    2.64028746418333   -1.10556582768135
H          -1.36255928670700    1.32788908340442   -0.28049701184946
O          -0.62773991333810   -1.83221527344498   -1.44188312903517
H          -1.20316017280791   -2.12465900257305   -2.15190928305277
H          -1.17780475029747   -1.29140522950012   -0.82834308430896
O          -0.98426309572236   -0.57882355039689    2.31334788091578
H          -1.63889751312890   -0.33994973638402    1.00472753743382
H          -0.33392353143045   -1.28866201735974    2.07563573560231
H          -0.43507365841374    0.22909526758063    2.40371229953032
N           0.87545682122962   -2.20703323760950    1.27082868422753
H           1.31020433291878   -1.42519334461714    0.78504728237480
H           0.53510950384706   -2.83720331512858    0.55484624943685
H           1.59977245138111   -2.68623350354290    1.79036837774848
