    26
        -50.47016253  Gyration_radius:  2.50294785702 Dipole_moment: 3.080
 S           0.25467015000745    0.52312268521689    0.71648812667419
O           0.01047795698512   -0.88920241123523    0.40195253038976
O          -0.99601943326596    1.20640387920496    1.02332573859858
O           1.17043152159599    0.58549986790240    1.96189946861801
O           1.00067079291572    1.17434815945028   -0.34872523536239
O          -0.16017818111081    0.93683135835999   -2.76461299143017
H           0.33481839093546    1.30626615528452   -2.00884626791468
H          -1.08229446526997    0.91653591796605   -2.43827046823261
O          -2.13424140195481   -0.91038823066155    2.13148157806255
H          -1.93528521656880   -0.02913408299396    1.75685353703422
H          -1.69798421189208   -1.51365606950467    1.51916954095076
O           3.11837182456847   -0.12119954569897   -1.24178838612114
H           2.43657109444191    0.41243242165205   -0.77299915894042
H           3.68970692223002    0.50964233669352   -1.68284239642084
O          -2.35398903643184    0.86440083972324   -1.22982349118095
H          -3.09727021871238    1.46993765144607   -1.21087510233755
H          -1.87373950044672    0.99978431604659   -0.38520340105097
O          -0.20583455596467   -0.50201198830354    3.87573155604833
H           0.70621698599591    0.12943292015372    2.71823678581396
H          -0.50229042225039    0.19302301370814    4.46714607830564
H          -0.99995104011907   -0.77742210286852    3.34930860106941
N           0.86448972617117   -1.33676187716296   -1.99650399978242
H           0.70031148117874   -2.23855781238139   -2.42820206477083
H           0.47765385286723   -1.28284022460991   -1.00001391060353
H           1.87582062057665   -1.10603980621668   -1.90417837325067
H           0.39886636351864   -0.52044735117256   -2.50870829416484
