    26
        -50.46139472  Gyration_radius:  2.47882905734 Dipole_moment: 6.226
 S          -0.00814973520651    1.79495806619156    0.75610815816439
O           1.19160003507181    2.29478996164641    1.36692511158031
O           0.08193626541953    1.56951123248248   -0.68030027211059
O          -0.62231557230881    0.65982216197302    1.43125577813227
O          -1.09935824449489    2.96905889469779    0.90807975723409
H          -0.60375125056584    3.68589153466952    1.29079252018142
H          -0.40600308078820   -0.99165355887863    1.26483628097656
O          -0.37880509112813   -1.96253058315442    1.11888914250412
H          -0.33091128426498   -2.36147642086963    1.98864645275280
O           2.94660286897616    0.29012938526236    1.08304544735280
H           3.74486812627865    0.71314776125944    0.76128674489764
H           2.30936007567593    1.00928075783216    1.25041729578052
O           2.00902367214629   -1.85237053914975   -0.34819571913201
H           2.44370755905160   -1.13293147725146    0.14332502627756
H           1.23869593596142   -2.09204858216228    0.18818165363050
O           0.56185755957905   -0.68279879443925   -2.25587383678352
H           1.22275344452915   -1.17096935925109   -1.71183790106985
H           0.51829173033585    0.19807676626045   -1.85580999956419
O          -1.59956036006451   -1.81303954867874   -1.35981562482368
H          -2.12760571997510   -0.51931949206148   -0.96833865278474
H          -0.78929160081688   -1.49057033660510   -1.85794135382252
H          -1.24329567044506   -2.16889823638640   -0.52955649129674
N          -2.28919972791804    0.52222679228260   -0.60004741232318
H          -2.14301493568245    0.52551995450208    0.42138364746698
H          -3.17248612538656    0.93413796014958   -0.87873370533791
H          -1.45494888396265    1.07205568965990   -0.92672206789071
