    26
        -50.45168982  Gyration_radius:  2.43186928086 Dipole_moment: 1.667
 S          -1.27574535601256   -1.05618402300463    0.73266785462756
O          -1.77294395124441   -1.77618886327284   -0.40552387828574
O          -1.72068091047844   -1.43234465295435    2.02602057493246
O           0.27703125943526   -1.14305068149307    0.71666448393228
O          -1.57876297438635    0.45036692356538    0.54764890028748
H          -1.32472235866616    0.78131273354091   -0.36772082869292
H           0.64856492461429   -1.27036177020849   -0.20837591573819
O          -0.81203199101304    1.38989080385832   -1.71207186383149
H          -1.07209132750410    2.31048986333028   -1.77741504050035
O           1.95431468303644    0.99992087921792    1.52395635330155
H           2.19585037095718    0.07324401490041    1.58575025009274
H           1.13399419629911    1.07383390492596    2.07357186891393
O           1.28270733509709   -1.48685352212938   -1.63937681338421
H           0.47742112189742   -1.36799650754229   -2.23195565713475
H           1.56230507987760   -2.39763440529492   -1.74701400085956
O          -0.96464675744045   -1.13742650530138   -2.86408364890475
H          -1.07964553143688   -0.17874713824941   -2.80869238960715
H          -1.45633777305189   -1.49894600077705   -2.10091959034623
O           1.67333529892531    1.26381792264393   -1.10834504669139
H           0.18451390555005    1.39211015624505   -1.52031702124927
H           1.78930348517450    1.27893732015672   -0.12587927838920
H           1.91679477243135    0.37326597515580   -1.38788641771106
N          -0.26687892293726    0.87771621749896    3.06694794728073
H          -0.13138793980964    0.88527234545484    4.07106780184581
H          -0.70212005864341   -0.00665025468518    2.81792253510899
H          -0.93814058065889    1.60220525441717    2.84335880101004
