    26
        -50.45192517  Gyration_radius:  2.52802774527 Dipole_moment: 9.342
 S           1.07631557999761   -2.36210956871869   -0.94646132947127
O           2.07124298966401   -1.33167579846375   -1.22327007022041
O           1.49165364365125   -3.70742929877302   -1.11110545103157
O           0.47817082817882   -2.07286234884356    0.39501292528234
O          -0.12466505377296   -2.10093804366197   -1.95735797173435
H          -0.46557853825385   -1.21277761815524   -1.78208073744846
H           1.07920246805588   -0.85864351982966    0.88839355469428
O          -1.46146608445186    0.29780595879095   -1.40388878766514
H          -2.21038517932200    0.15829617354980   -1.98566676579190
O          -0.91564017782857    2.60921589365461    0.03400345429725
H          -1.26855623416587    1.91191598619002   -0.54667440805284
H          -0.04925387192158    2.82534914130814   -0.32337426731966
O           1.26901125080267    1.10180001600828   -1.31299188002777
H           0.37097839075302    0.96626134459538   -1.63988649943357
H           1.71708766235071    0.22866911720659   -1.47337461350508
O          -0.78020840569601    1.28948419761402    2.33443911204856
H          -0.89594352212520    1.86630976147271    1.53915634557550
H          -1.20200543640456    1.73974334269757    3.06670969706980
O          -1.82922990372163   -0.88812595467351    0.84559813779613
H          -1.07784664790843   -1.51601310975042    0.75167764014387
H          -1.57358205042088   -0.26837359325728    1.54514496937745
H          -1.69323996203115   -0.16064241545256   -0.53226170540555
N           1.42918711490675    0.14684958597278    1.17412670266657
H           2.37198158885377    0.08592869530870    1.54129110381274
H           0.77217861244882    0.55935969903069    1.85146489839176
H           1.42059091836584    0.69260232618341    0.27137593596198
