    26
        -50.45335468  Gyration_radius:  2.50736719004 Dipole_moment: 8.529
 S           2.18438698701206   -1.07580496454305    0.39457180437732
O           1.16540775508596   -1.33839812874146   -0.65089493490156
O           3.46831733322937   -1.60135251057656    0.09020342289566
O           2.19203978891364    0.38486212782046    0.66483089608500
O           1.65397279301770   -1.75727936215312    1.69652883593953
H           0.71140223192687   -1.50300101904835    1.82247813193853
H           1.78358606052867    1.06705336556471   -0.67602001829326
O          -0.93585930532537   -1.21208166470118    2.01939178304067
H          -1.26145953325897   -1.85675328484223    2.64919574143014
O          -1.00637239635080    2.27404799400157   -0.55491119881108
H          -0.69355254754218    1.93377252584150    0.34440154811002
H          -1.17752123855520    3.20904273247736   -0.43747597985555
O          -2.37872039378015    0.19533477470999   -1.72124785211988
H          -1.97478692749309    0.97040624784985   -1.29494393260409
H          -3.32839432769950    0.31229204629212   -1.67288281480930
O          -0.05383757552989    1.36157108639004    1.65337394776111
H           0.85091963545545    1.05892478691177    1.40903652365441
H          -0.51293244166515    0.56005672936058    1.94600580976006
O          -1.39478092568265   -2.00647243685741   -0.38727596179223
H          -1.21938586693598   -1.53440945916699    1.10773394273664
H          -1.80194718733288   -1.31009525409047   -0.93365484239148
H          -0.44042053845951   -1.96352170214149   -0.59591970093207
N           1.18397418077215    1.01880359002814   -1.56185125643331
H           1.67544979242216    1.27754596970305   -2.40918047610204
H           0.31489514768608    1.56782999523356   -1.41214814607956
H           0.99561947955962   -0.03237416532589   -1.48934526260731
