    26
        -50.46385737  Gyration_radius:  2.40990059211 Dipole_moment: 6.531
 S           1.18774816317350    1.07596376063261    0.25906747204406
O           2.44709886739991    0.48758441511770    0.62671862737566
O           0.83506095493614    0.70235647404490   -1.21356218299353
O           0.08275637108740    0.57613164353669    1.08516257131358
O           1.17693686289292    2.54518319555558    0.23419706300043
O          -1.75300409636893   -1.91448078046879   -0.32709325544023
H          -1.39606961113479   -2.05335180069100    0.57894495800683
H          -2.10152965481874   -1.01579456581096   -0.33859390358867
O           2.20478851578153   -2.11335966599414    0.83352422593644
H           3.08577625871523   -2.49099177128796    0.82845507253221
H           2.33020547729215   -1.13342596418239    0.83934552651634
O          -0.37078043205866   -1.92710526183916    1.98075815586429
H          -0.20317050043940   -0.97632188334526    1.85581239345442
H           0.48084147654684   -2.34195119999212    1.79517947590219
O          -2.23214085044384    0.97785725231039    0.11785960360010
H          -1.33923331312212    0.76960172957138    0.53048853256904
H          -2.82973821352710    1.12352196276996    0.85379019705096
O           0.66767209031510   -1.79016808758232   -1.38717804647360
H          -0.27218884662989   -1.94203181611808   -1.10884229232301
H           0.80423495674753   -0.33093769065835   -1.32885480957474
H           1.22045362119690   -2.10165460665835   -0.64434359473873
N          -0.83692411606524    2.80506360120093   -1.23705795622753
H          -1.18296001845902    3.74116880727438   -1.42122953009833
H           0.07241830455528    2.79283030569417   -0.55280870800044
H          -1.55374711416389    2.19231794901657   -0.77112832127588
H          -0.52450513341275    2.34199400789084   -2.08861125442097
