    26
        -50.44037728  Gyration_radius:  2.60724016049 Dipole_moment: 7.521
 S           2.04763315854751    0.97451836342053    0.83548922594702
O           0.81590025318763    1.69802545496704    0.96716912390559
O           3.07826674696755    1.22558710287249    1.77277060672504
O           1.69266190673234   -0.55907275265317    0.83014671712926
O           2.60382634700087    1.15655673505304   -0.59984315074743
H           1.83813785292536    0.97300109422237   -1.20209531240012
H           0.75441971461176   -0.69198195497301    1.17533480946629
O          -0.68886472834424   -0.98246970216935    1.69009862231995
H          -0.65999535300205   -1.49657435308629    2.49861904180526
O          -3.26701209204837    1.47651276965115    0.16134736321050
H          -4.15459923433863    1.13315791365993    0.27061121107808
H          -2.76504629955886    0.79565111101485   -0.33858590244758
O           0.66072786674018    0.35778637740863   -2.14352854462852
H           0.73074002519375    0.62173055346589   -3.06285110800956
H           0.93239107230724   -0.60859837520130   -2.08173622301314
O          -1.71930680744643   -0.46925036774746   -0.88814842792326
H          -0.96864069906223   -0.02075203526786   -1.30408673873873
H          -1.38825290077658   -0.81561124480036   -0.04848433381446
O          -1.53273707073422    1.36092865272437    2.23246156039042
H          -2.21871200917965    1.54753356704657    1.55539044041531
H          -1.06286280245756   -0.06444699442070    1.95153491632375
H          -0.72184046715689    1.77712632248619    1.89441918226349
N           1.41837973522878   -2.12639188719235   -1.67249601287685
H           2.17806411566988   -2.57472731701205   -2.16808520695042
H           0.65706343324380   -2.78848476626387   -1.59060391748820
H           1.73965824575812   -1.89975426721279   -0.73484797193472
