    26
        -50.44724331  Gyration_radius:  2.48579629088 Dipole_moment: 2.976
 S           1.61993937372287    0.62875456285143   -0.69439833417104
O           0.39480134725494    1.36992112405741   -0.80839662128224
O           2.20483361294562    0.14726318315397   -1.89430861230438
O           2.67060111337845    1.46293870803891    0.07277655488537
O           1.36099800292753   -0.58485574089048    0.24675020158166
H           0.71783113004025   -0.32825210181355    0.99226793642100
H           2.29567073271252    1.75357871557240    0.94582571532957
O          -0.26402397507925    0.05069106451850    2.12545151234372
H          -0.79817539117021   -0.75071704541599    2.20469396041438
O          -2.24355407565694   -1.38403349411969    0.76983294656037
H          -1.62211281504821   -1.79236090321878    0.11331827062876
H          -3.03497061826878   -1.92224693616508    0.74842353452715
O          -0.53105636756646   -2.38328632941926   -0.96808935329220
H           0.33685059982730   -2.19376741874448   -0.59805150806602
H          -0.59242955540066   -1.80729128852859   -1.77045093844492
O           1.71085510045761    1.91431114892682    2.45602662233165
H           0.95693609545610    1.31132617411582    2.56255980308397
H           2.35815707764245    1.68010218571069    3.12477892626725
O          -1.88782999396437    1.36979922378731    0.62308793990694
H          -0.89757280354096    0.68727148942324    1.66372686218955
H          -1.19434944266369    1.53504046318843   -0.03868119178791
H          -2.28754433256855    0.51183841375965    0.40645734844381
N          -0.40745520722275   -0.54085646909236   -2.92451593998788
H           0.59188015667345   -0.38355831746658   -2.82082070098761
H          -0.85514282373639    0.31826510627855   -2.62830684932696
H          -0.60313695116435   -0.66987553848318   -3.90995808524377
