    26
        -50.47288904  Gyration_radius:  2.42609857457 Dipole_moment: 2.396
 S          -0.38498649984891    1.03347933705633    1.34909726057211
O          -0.63404711119514    2.36906364369865    0.86526204889314
O          -1.45157535214907    0.09660567132831    1.01221825429441
O           0.91746344724524    0.51846912490542    0.96426273215912
O          -0.37719684701802    1.13710596366411    2.93515761180016
H          -0.66727876829573    2.03384159778527    3.06246446987539
H           1.57659422210735    0.75764559266176   -0.53073248120404
O           1.89729358043685    0.86025809893915   -1.45617012720089
H           2.82577158634481    1.08889259046906   -1.39278974118029
O          -0.63134763269552   -1.89549410497722    2.60773689839038
H          -1.05078387160759   -1.21698985213079    2.05108896212920
H          -0.27384955125069   -1.42495162747925    3.36293523093653
O           1.24705499301649   -2.14483980403973    0.60222134117538
H           1.29373007791182   -1.19290352506308    0.79811242588898
H           0.60129069743136   -2.47579746047232    1.24563685459746
O          -0.53021840318010    2.14071450537299   -1.80369555476137
H           0.40891125976449    1.92119096581012   -1.91306786912685
H          -0.62817618263301    2.39278975976134   -0.86277324294404
O           0.75312891253901   -1.63487609723277   -1.95071958201243
H           1.33328812435677   -0.85876813873181   -2.01608686623402
H           0.94616039766330   -2.01328959297242   -1.05827872924379
H          -0.61437955964255   -0.94720889969049   -1.80608567002266
N          -1.46180274003932   -0.31338084701880   -1.59244795857913
H          -1.20392988067238    0.68108567819905   -1.86140383295410
H          -1.58769444789250   -0.28086063316695   -0.55292375464821
H          -2.30342042069225   -0.63178194667768   -2.05901868057686
