    26
        -50.44837136  Gyration_radius:  2.40353872511 Dipole_moment: 1.444
 S           1.63237029451859    0.18134730796236   -0.94146987199583
O           1.38379513294469    1.18379634465612   -1.93949865956155
O           2.97095179001188   -0.09105621073165   -0.55833693383844
O           0.83739716773174    0.59736734748560    0.33390958145760
O           0.98367546420512   -1.14770661475317   -1.38236669119744
H          -0.02471425907021   -1.09663263086071   -1.34748309441816
H           0.19392593673619    1.35242184488485    0.15519741649123
O          -1.54578886327219   -1.04322062435039   -1.11037310866293
H          -1.97444100625425   -1.83107252957334   -1.45036710320305
O          -0.82858190550020    2.52633178515856   -0.04163641941845
H          -0.34788606260472    3.33812650053904   -0.21666318071839
H          -1.17028274417525    2.21502020904506   -0.93160838659464
O          -1.26094825096155    1.44205334726173   -2.34346224590261
H          -1.56843364928619    0.56173001225430   -2.08244743958084
H          -0.29376078488042    1.37140717250999   -2.46177314413131
O          -1.06341053723037    1.03071367845747    2.43744992751031
H          -0.10279645172262    1.04847996775274    2.45046366349020
H          -1.33073081120251    1.63305827463092    1.73315114084476
O          -1.11027759158811   -1.48105100589940    1.34861735626024
H          -1.45935457613928   -1.19116815463983   -0.09638743378278
H          -0.14283430599302   -1.68212206228986    1.37268489957116
H          -1.21881525177193   -0.64521659978494    1.84181067782317
N           1.58880174366498   -2.00478031626099    1.33295580512223
H           1.72864870126812   -2.89478716546571    0.86955764378640
H           2.03540797860054   -2.06392621915825    2.24065725154599
H           2.08808283194549   -1.30911364883607    0.78741837909917
