    26
        -50.46247227  Gyration_radius:  2.42016175103 Dipole_moment: 7.264
 S           0.90883049883325    0.93650989645866   -0.51785732345872
O           0.04386404239397    0.27489541354416   -1.48952487471225
O           0.35203872822450    2.16616918696393   -0.01240062541180
O           1.07201559278683   -0.07321264500219    0.68497489082270
O           2.27936784015688    1.05531293925675   -1.01405232806994
H           2.66692488657290   -0.31333819285983   -1.03884880168778
H           0.23203688539545   -0.58754433169066    0.84714185265560
O          -0.99650071557094   -1.59185804793432    1.05626123853045
H          -1.01656526134721   -1.87129450774746    1.97344696819126
O          -2.19510804020676    1.69307024535871   -1.17729495838302
H          -1.73679229246449    2.45744681886610   -0.81475461311880
H          -1.47225944004801    1.11240671509967   -1.47780066909980
O           0.40644812683599   -2.27890055071661   -1.28026638934134
H           0.13743943408073   -1.37056977081410   -1.55895831112054
H          -0.10762361187213   -2.42264208191289   -0.47260001007538
O          -0.95968178127863    1.84612661191710    2.26859814316879
H          -1.08807269033566    2.72190663168141    2.63572044352785
H          -0.41267488992797    1.96878083953359    1.46287562261675
O          -2.77190641469066    0.25431962150981    1.02015376033426
H          -1.76636276012279   -0.93616754177649    0.96624425911342
H          -2.28098102247459    0.84639502351892    1.62158965400173
H          -2.75833647425631    0.71872512969145    0.15475805076655
N           2.85305148111185   -1.40966812035898   -0.97920697643510
H           3.48503793580874   -1.70973252093635   -1.71525961188618
H           1.88478196278532   -1.87727006409286   -1.08084357333955
H           3.24102797961391   -1.60986671756092   -0.06209578758559
