    26
        -50.44966757  Gyration_radius:  2.50289421497 Dipole_moment: 2.530
 S          -0.36566312882342    0.99386444899018    1.13212105856169
O          -0.67807583135798    0.93429063042338   -0.27739970967305
O          -1.45228715694160    1.23661946022089    2.01316054439627
O           0.27739876105104   -0.35935459989315    1.55194099021557
O           0.77052618564754    2.00304054161624    1.33890010104677
H           0.99322327604068    2.42276655581875    0.42264246773792
H           0.98018804368100   -0.61666490332835    0.88661180832296
O           1.92990786511759   -1.12587437308487   -0.28903887688474
H           2.30220656480003   -1.99276877441430   -0.11393571573996
O          -1.39984832359228   -2.55587778317002    0.53508236170549
H          -0.85720358427524   -2.23849785867097    1.26228780120270
H          -2.19643353167548   -1.96915144038005    0.54578161667120
O           1.17776188124641    2.76197664944368   -1.01898563046471
H           1.96555645529520    2.23141690169567   -1.28393070199182
H           0.40338863817983    2.26714665369149   -1.31953815444774
O           3.20739892962142    1.06192655416580   -1.34741320025245
H           2.81254176031223    0.23456936439211   -1.01822593907338
H           3.94720386271288    1.26714737829921   -0.77325446395321
O          -0.24247302497489   -1.40999217899082   -1.56511502963988
H           1.13678887013817   -1.28139701487247   -0.92092902674508
H          -0.71339137391789   -2.00360629644152   -0.93082069823193
H          -0.56827975980000   -0.52102313021263   -1.34577641417471
N          -3.23181380865194   -0.58368249996277    0.61380526579910
H          -2.72515057196496    0.06345379684482    1.21374361655573
H          -4.17024751635444   -0.67859800213981    0.98298595083446
H          -3.30322346154642   -0.14173009999342   -0.29470003188215
