    26
        -50.44410008  Gyration_radius:  2.49531348676 Dipole_moment: 7.234
 S          -0.62303480431655    0.73548137072356    2.27262065326435
O          -1.05192926174290    0.91228306412286    0.90721489691209
O          -1.57355758928939    0.98275426875790    3.28946672851005
O          -0.02971609462443   -0.70236709146518    2.39427680180987
O           0.63746203335705    1.60084912738179    2.51382803711234
H           1.26864927577257    1.35035154964541    1.79296612301843
H          -0.35231786465278   -1.28284790193295    1.64707587960338
O           1.40369055756962   -1.17533393402548   -0.96605820173760
H           2.04135918551497   -1.65583704337360   -1.49604419772092
O          -0.56793155373187   -2.30455294713745    0.43859426663268
H          -0.24661712332809   -3.16240571142013    0.72429497448375
H           0.11813204319125   -1.92307290658085   -0.15731747044594
O           0.36905689345270    2.33033362450910   -0.92947998576697
H           1.24029296605889    2.24928122564227   -0.53103136422023
H          -0.24990506209146    1.94058373670709   -0.28694772952824
O           2.27007335203283    0.77639647282048    0.64072178007301
H           1.92067286671624    0.04794302470600    0.07090505115309
H           3.04362330004117    0.43012501633875    1.08945603790655
O           0.04778365226697    0.21849104592854   -2.57134951373082
H          -0.87231904561599   -0.04009602905170   -2.30735802950675
H           0.16716931550294    1.11119191491729   -2.18239952146330
H           0.85572318748511   -0.61098861558388   -1.64509287581324
N          -2.27077886946816   -0.42543697958608   -1.38472165524087
H          -3.19019185891065   -0.11553700841286   -1.67260733149125
H          -2.01179395217139    0.10559776666323   -0.55576693233955
H          -2.34359551902285   -1.39318703031166   -1.09524643145818
