    26
        -50.45024465  Gyration_radius:  2.52851494273 Dipole_moment: 9.548
 S           1.57941950659502   -0.33634066067127    2.21678109075511
O           1.80609635759502   -1.52819630077098    1.41011765242588
O           2.40232487337149   -0.16737375979128    3.35879318971819
O           1.56757524401443    0.84953274093976    1.30588390125037
O           0.06844038911736   -0.42923118660239    2.72333246308096
H          -0.47574752778627   -0.66060772372104    1.96370848148347
H           1.65682745544769    0.43715585054574   -0.08115154487340
O          -1.83636002169805   -0.78727892362239    0.67504793301602
H          -2.64530481897463   -1.10102018700118    1.08169141976777
O           0.31931767712174   -2.14915431053557   -0.59243827482531
H           0.93759013212750   -2.14565413873978    0.18479264056534
H          -0.53961916673763   -1.94476358043394   -0.19940606092784
O          -0.45687796035740    1.83776047975031   -1.83520215412027
H          -0.60118070976191    1.94062928001191   -0.84249294260149
H          -0.59137094672873    2.70766297717717   -2.21228145266641
O          -0.75837026568124    1.91563230224205    0.73380961436184
H          -1.34119425792793    1.19388638592464    0.99783142024157
H           0.13209057899191    1.66275547555725    1.07447705522562
O          -2.08510820918352   -0.33171952897335   -1.91620477443473
H          -1.60010802857840   -1.02951200359272   -2.36263705234490
H          -2.05178056388032   -0.57476553343124   -0.26888400018935
H          -1.56962686856531    0.49103309105367   -2.03103384499636
N           1.56092885804712    0.12078955416242   -1.12995164447344
H           2.47807058189224    0.03095879010902   -1.55117294347107
H           0.97453755616861    0.81609627009446   -1.61739811255254
H           1.06943014533701   -0.81827534968774   -1.08601203937604
