    26
        -50.46449933  Gyration_radius:  2.65299084519 Dipole_moment: 5.980
 S          -0.30333239089006   -0.08442794043341    1.20354419910608
O           1.11874555371492    0.16218860069257    1.33692074260714
O          -0.53531264843281   -1.30571358747097    0.41841143807375
O          -0.91882445233158   -0.32966717600357    2.60603927122348
O          -1.00208819547810    1.04738278672748    0.59423408965145
O          -0.77692630118232    3.13981664772480    2.21608856545393
H          -0.86015547351983    2.43755786189219    1.53598304813199
H          -1.67277683772138    3.38336342148293    2.45535563915284
O           0.71270096469118   -2.46457984860253   -3.15825735900645
H          -0.16238384065402   -2.17672300173140   -2.82265414558942
H           0.75720907948662   -2.18882659332640   -4.07509421387211
O           0.09992256164310    1.02162705643349   -1.79678496496590
H          -0.58201646124476    0.49678775678094   -2.23747297847593
H          -0.28556975519357    1.22053485945762   -0.91336700064473
O          -1.48836084778425   -1.33098881315346   -2.03209066111952
H          -2.38016204691095   -1.68168493373934   -2.03911783299302
H          -1.21417811610965   -1.32193598556887   -1.08193414846975
O           0.65017557290473    1.38839569034701    3.68464399560004
H          -0.40079627427611    0.28138242700778    3.21226194391415
H           1.23817044451615    1.09396414228593    2.97010497957079
H           0.22411424616783    2.20052936151864    3.34088484690474
N           1.60070648581228   -1.01401288311520   -1.09074285303377
H           2.50897633023736   -0.89177399696930   -0.65522072499373
H           0.89999640034070   -1.31536098451112   -0.36412331532762
H           1.19496943623689   -0.08163334401733   -1.42132427022811
H           1.57719658597456   -1.68620153371423   -1.88628828067258
