    26
        -50.44410006  Gyration_radius:  2.49495100188 Dipole_moment: 7.225
 S          -2.21929430062934   -1.05046087854690   -0.24560602113045
O          -1.07900768864284   -0.69780477353286   -1.05482455708774
O          -3.07450081168631   -2.06416866596042   -0.73514751419259
O          -1.69117696138860   -1.39912412009213    1.18048373512816
O          -3.03879944743627    0.23031780036544    0.04403581333649
H          -2.38889388298245    0.87719872586592    0.41815384416238
H          -0.71728777433623   -1.62310304711536    1.15232859263486
O           1.20973193898996    0.84771023476518    1.44977360363979
H           1.81012120156309    1.30021200800161    2.04404795663634
O          -0.42009229394827    1.87288225163161   -1.65687123881341
H          -0.68623127484985    0.93817340881296   -1.59962409261619
H          -0.84568981233837    2.30914263289772   -0.91331885015858
O           0.85591602823948   -1.79863036085599    1.36410002619824
H           1.07695963188440   -0.83822009076897    1.37027866582240
H           0.99357723788331   -2.12449844410016    2.25609111583069
O          -1.26162537244972    1.81423030600592    1.13325194110604
H          -0.36100294906187    1.42130915527460    1.24270779269473
H          -1.58488725869593    2.01437022366582    2.01370907042916
O           2.08231579928604    1.24287058341874   -0.88259491797061
H           1.58781198348256    1.02086705506153    0.49730750262872
H           2.11760428659791    0.31325697913980   -1.22581249913042
H           1.28768522487310    1.62689891941208   -1.31104035940421
N           1.72202949312319   -1.31733957992518   -1.59899269438233
H           1.96759172989989   -1.99468960819340   -0.88727473345976
H           1.94574243066586   -1.71737046543302   -2.50132275644228
H           0.71140281196333   -1.20403025974475   -1.55383943545900
