    26
        -50.46404564  Gyration_radius:  2.46153848419 Dipole_moment: 6.095
 S           0.17515032567912    0.58980556285695    1.10222877791168
O           0.97687168480196    0.81753265154899   -0.22447800717732
O           0.97173238821406    1.21045605802353    2.12910883140999
O          -1.15084061232484    1.14297536862250    0.92745581621925
O           0.11989955657096   -0.88275530211033    1.25946941886504
O          -1.52907783178843   -1.96950414273459   -0.56667995220532
H          -0.98081569062067   -1.74533520676397    0.20625895045684
H          -2.39399388785160   -1.55820001484195   -0.36686287541190
O           3.35984260084986    0.75541383640915    1.28472662824949
H           2.50177170448488    0.98171780074531    1.74041598528817
H           3.44718329399644    1.41766627290554    0.59475577353832
O          -3.43956163995291   -0.20999389472295    0.18976639643044
H          -2.74226897561713    0.23716209000896    0.69750570132207
H          -3.62601822793781    0.37692612951824   -0.54904340684879
O          -2.06925768708650    1.87507479979658   -1.45516162862288
H          -1.74360528090733    1.69814928549312   -0.54525714640886
H          -1.90640752606142    2.80363952806252   -1.62356209680840
O          -0.39584981889907   -0.16834860310089   -2.08603586335538
H          -1.08295038133175    0.52045251961904   -2.15465312848380
H           0.43620693594725    0.43047881650196   -1.01410112748851
H          -0.84454407276323   -0.94278994325659   -1.64454913636345
N           2.40935503371366   -1.50849556568230    0.40280029986204
H           2.82697201650872   -2.35042521444139    0.78694244470331
H           2.34953115725613   -1.55885692649043   -0.61072504574220
H           1.39341085535643   -1.34124073890825    0.80871933963813
H           2.93726405975279   -0.62150515700648    0.71095507099094
