    26
        -50.47220456  Gyration_radius:  2.42009025469 Dipole_moment: 2.797
 S           0.75433497841830    1.41588624797638    0.62582695182438
O           1.76274310292739    1.01620094060449    1.57576374482521
O           1.10021905771789    1.03104068951947   -0.73920085700991
O          -0.58614433660832    0.99313059647885    0.98607184646253
O           0.71651370904101    3.00296621408759    0.64269798895754
H           1.61852428631434    3.20885150939964    0.86153008919101
H          -1.03780791742473   -0.54231102405335    1.29135697236539
O          -1.22481254509357   -1.49595170335808    1.45338565895900
H          -1.99647747935974   -1.52432200096268    2.02108159208679
O          -2.09402500066568    2.54098078588820   -0.59351835141185
H          -1.61820983472632    3.37206399167601   -0.63626541306266
H          -1.63843353585481    2.01223394281125    0.08519629409510
O           1.54357566699183   -1.64505881894823    1.76354892320949
H           1.71201712047235   -0.68530267527137    1.86067249154734
H           0.59165128017126   -1.76600880851575    1.90921269768734
O          -1.16201850759058    0.42970710457207   -2.12644591245350
H          -1.79395053426521    1.08864520721325   -1.79906468651368
H          -0.30975270869712    0.71072382456433   -1.75194121728053
O          -1.04134277762427   -2.07924828559007   -1.24707694299557
H          -1.25556115159360   -1.20956152067518   -1.66203455273831
H           0.48250277179033   -1.92337284595937   -1.11406878711599
H          -1.30802101102774   -2.00434969399759   -0.31484935476938
N           1.48145682316429   -1.59296453343789   -0.86172119020405
H           1.64109977478739   -1.79135838507159    0.16975564020667
H           1.47342890224784   -0.54984569361162   -0.94599588943195
H           2.18848988646237   -2.01277505534679   -1.45391774640721
