    26
        -50.45111062  Gyration_radius:  2.41270141975 Dipole_moment: 3.943
 S           0.09327390369171    1.93617352573229    0.79062345288523
O          -0.54253024381694    1.04104595589771   -0.16171019076745
O           0.45652143943185    3.20502958405867    0.28127488163334
O          -0.81378470319420    2.07147147809718    2.01655174744573
O           1.36344006213007    1.23172346294742    1.32957114420711
H           1.25116041908548    0.23063424112224    1.35886507106283
H          -1.01883774818610    1.13751649211744    2.37732684558930
O           1.08264079013129   -1.31855565723724    1.34432729329676
H           1.88440939014878   -1.72559374383858    1.67921997398120
O          -1.17923075815370   -0.35347984203443    2.71093232070358
H          -1.77982286480726   -0.67644918339717    2.00188419195506
H          -0.34161274256952   -0.80619846237447    2.53766172240376
O          -2.14284041282403   -1.07826986801018    0.34343551369560
H          -1.64222774709495   -1.82018801144571   -0.00410374958883
H          -1.66332074429508   -0.27890705572515    0.05776022907590
O           1.79143068201764    1.23871950253197   -1.58495852381630
H           2.23701005448104    2.04837413688535   -1.32883815197528
H           0.90269363854220    1.30358660869526   -1.21151054978833
O           1.30519155471205   -1.46606507577060   -1.19935853244808
H           1.11715606605358   -1.44067112949599    0.33383233063863
H           0.45275369067687   -1.38329316298406   -1.68890026832859
H           1.76357099884960   -0.63480000077794   -1.40077413436684
N          -0.96241490245685   -0.78757007749588   -2.53162866054780
H          -0.69652716950665   -0.55007504564737   -3.47929076198243
H          -1.03308245290814    0.07971618798621   -2.00825345134119
H          -1.88502019001872   -1.20387485951470   -2.56393971365890
