    26
        -50.45963362  Gyration_radius:  2.52005267318 Dipole_moment: 3.918
 S           0.38667643178238    1.73807689391881    0.94364415337061
O          -0.95258545448132    1.23385286069827    1.20389319930463
O           1.38774591074566    1.10005231883857    1.78143721617422
O           0.72576808920002    1.70443645441314   -0.46718557495126
O           0.38175229022978    3.26506124031640    1.36934594138445
H          -0.24000510895433    3.67247897166265    0.77326919578299
H           1.55342708909617    0.24624915805426   -0.44448290266205
O           2.00262696821795   -0.62473785551095   -0.44130651440745
H           2.72930384642331   -0.52377245736271    0.17653021328901
O          -1.89303358443775   -0.88907078141908   -0.25052617099435
H          -1.67242365577271   -0.03969632849597    0.16598662531258
H          -1.99057868821917   -0.70044768456995   -1.20518426112755
O          -1.88273108753053   -0.34962340244164   -2.90687547968659
H          -1.96448210724793   -1.05240314873480   -3.55276492308886
H          -0.97202096530625    0.00672883529074   -2.99753448026701
O           0.68173037063104    0.47715808199753   -2.92533933173089
H           0.64610266619494    1.11849613304895   -2.19901011166828
H           1.26560327763524   -0.21913043644614   -2.60856512629637
O           0.13918129631320   -2.32091249074414    0.54436967504892
H          -0.68541553514763   -1.94912672152929    0.13009881400629
H           0.87527505328432   -1.85917873334245    0.09168784857129
H           0.01435449377623   -1.59450094270930    1.82163122050193
N          -0.10911766211380   -0.83030625897023    2.61203327718834
H           0.67385542195333   -0.13129430323139    2.48317707367474
H          -0.16938370755561   -1.21132633828622    3.54955206066653
H          -0.93162564878376   -0.26706306442107    2.35211835260058
