    26
        -50.46387059  Gyration_radius:  2.40668088552 Dipole_moment: 7.324
 S           1.00418590701234   -0.77675641820676    1.22369674984575
O           0.38409368058854    0.63916523679527    1.48117164452075
O           0.30967428212419   -1.76795036173210    1.99357646761609
O           0.87403410942845   -1.01917961576703   -0.22449185767722
O           2.41117736508030   -0.57063186860569    1.57218345578797
H           2.62847674412846    0.72933889459075    1.05992498922814
H          -0.36376767136229   -1.58187412886256   -1.04106991454998
O          -1.15735318477645   -1.80357540077186   -1.59757901138508
H          -0.83980370710526   -2.39203443072167   -2.28387143672575
O           1.16051674476834    1.23167909135589   -1.47157662480999
H           1.10570733686966    0.30826284593938   -1.11975934518680
H           0.23614900632734    1.48608472259386   -1.59449284239636
O          -1.65886499620208    0.84326989903367   -1.81042897221142
H          -2.40001270059736    1.02222728578715   -2.39066834685141
H          -1.51375636593548   -0.12825349709778   -1.83025919001858
O          -2.19396384675772   -1.92613792734763    1.04608801353872
H          -2.03027178831510   -2.16091152269561    0.12345946517511
H          -1.33176360466411   -2.00824596393852    1.50188684960363
O          -2.08036408927969    0.70020539461142    0.91988945652387
H          -0.62668749630645    0.66175541463174    1.32253061716957
H          -2.03503013424438    0.85988970007016   -0.03928534761407
H          -2.31181356578999   -0.25697810399160    1.03337204730827
N           2.63729723936664    1.76321774366378    0.63333845614083
H           2.05097035889038    1.69952868497176   -0.25793897478944
H           3.58016483225088    2.08881858789156    0.44538383908989
H           2.16100551483190    2.35908574753591    1.30491982277604
