    26
        -50.44795818  Gyration_radius:  2.56564845561 Dipole_moment: 4.585
 S           1.98345964352876   -0.10431265571113    0.30037057280246
O           1.06709565266323    0.13179072546481   -0.80241127446957
O           2.74965385395929    1.00959023650457    0.72364815028003
O           1.11764629996928   -0.64823332433563    1.49061857623997
O           2.84790421394743   -1.30682945435169   -0.02995290945409
H           2.28359584329651   -2.00109353274333   -0.63742770863169
H           0.53267733825126    0.11949785466325    1.78713796467164
O          -0.48896348222593    1.25629178255398    2.04439465501045
H          -0.72001776314894    1.33723836322215    2.97149656640954
O          -2.50071511666610    2.23083799222608   -1.11778357810116
H          -2.95171463876533    3.07376645736928   -1.05922844572921
H          -1.54248629626459    2.42141637852674   -0.98209794931350
O          -0.82105332437051   -1.63907712706194   -0.27116590234909
H          -0.50463629770785   -1.79999663757213    0.62439237483535
H          -0.25810159226334   -0.90655914567971   -0.60312681286177
O           0.05420864311167    2.63053991694707   -0.43691059224771
H           0.51597866521849    1.83239885369121   -0.74126807730253
H           0.07605384258905    2.57723374816615    0.52493415784209
O          -2.52000111367952    0.33050437121030    0.75785588358910
H          -1.32267048351496    0.92510426180566    1.56856054700528
H          -2.66522375952083    1.00152571917269    0.05378591526563
H          -2.17438405694513   -0.45050099392623    0.29495837080119
N           1.46668397672250   -2.87127915124766   -1.46493358060128
H           1.69158017155801   -3.85260964910885   -1.37030385758174
H           1.58911956827297   -2.58909185310441   -2.42834439964901
H           0.49431021198085   -2.70815314667123   -1.19719865646289
