    26
        -50.45127726  Gyration_radius:  2.48028865412 Dipole_moment: 5.948
 S          -1.66601817740149   -0.36098300469636    0.73563234901749
O          -0.34740183557172   -0.94244681060943    0.80322117777974
O          -2.11663207452505    0.25630461980513    1.93965439036657
O          -1.67438915961674    0.66355984351294   -0.44468313592329
O          -2.66306631136036   -1.38911235177973    0.23037604540966
H          -2.31225269775666   -1.68417207271996   -0.74389797736186
H          -0.99037246405307    1.38529160687693   -0.29069143381267
O           0.15577642187560    2.43209168796258   -0.10732562819746
H           0.08459877385814    3.16905528948525   -0.71658218529995
O           2.57700177131131    0.16500065554293    1.71499576553775
H           1.68684053250199    0.41478592426660    2.04712662115438
H           3.20024172920537    0.59584082630473    2.30224880127413
O           1.00207685096821   -1.49789717734703   -1.32935192197791
H           1.68935976981390   -2.12336145090870   -1.09026233761721
H           0.53509901897910   -1.28926779329335   -0.47992472295975
O           0.31498830871313    1.39870550635957    2.53576874419513
H           0.25530948313686    2.02303258253245    1.80222407480606
H          -0.53530142757844    0.93555945191546    2.55176155010455
O           2.15216243724910    0.97120465821120   -0.79521839548169
H           2.44359561351751    0.67892057555699    0.09916784703187
H           1.77707595487766    0.16986204122296   -1.19870162091667
H           0.97067420805065    1.89860922250695   -0.39595924146922
N          -1.74500072041668   -1.94396313406564   -2.06239255284079
H          -2.07214032427802   -1.20989069688322   -2.67617837642943
H          -1.99304828716653   -2.84392129519541   -2.45117347351879
H          -0.72917739431340   -1.87280871462362   -1.97983437284919
