    26
        -50.46040321  Gyration_radius:  2.68246777326 Dipole_moment: 2.826
 S           1.46871539278929   -2.41759937153769    0.08283594005327
O           2.08783759415625   -1.60252275570813   -0.95817659305553
O           1.72268776680595   -3.81677428459216   -0.02086360030237
O           2.14076220175629   -1.93861913693192    1.46584364582605
O           0.06066068758469   -2.04109162191971    0.24333485542866
H           0.08808551647697   -0.78925132803377    1.28236459235278
H           2.86757233412199   -2.54967019613562    1.50709543645304
O           0.08994094255409   -0.00085382758822    1.87557401006428
H           0.70480638349296   -0.22611717894601    2.57606815370475
O          -2.39714529752716    0.70877159363933    0.73990842026279
H          -1.68714368799682    0.45139166479549    1.34486653904565
H          -2.28089213454280    0.14889926477667   -0.04380267692969
O          -1.56544214533401   -0.88034991083519   -1.41176799301672
H          -0.99359718835489   -1.39601998698805   -0.78788932316798
H          -2.09749729693609   -1.52283938879171   -1.88255864041660
O          -1.61190101875989    3.13479488221246   -0.00900507840226
H          -2.01786848610653    3.79684784603196    0.55120356274882
H          -2.02673229912603    2.27214801641402    0.23677696278268
O           0.83339082272727    2.11587883778686    0.34462153092139
H           0.00981181340870    2.63988331364040    0.23022931312015
H           0.62283937410389    1.43856473928724    1.01909368319082
H           0.85841024391469    1.23371591412585   -0.90244616305783
N           0.79286608885266    0.50771016420638   -1.70104814515981
H           1.13942471422965    0.89233743461733   -2.57270588299339
H          -0.18375992078893    0.18874263892666   -1.79657189539540
H           1.37416757851219   -0.34797731245873   -1.41298064404510
