    26
        -50.45061326  Gyration_radius:  2.4490874564 Dipole_moment: 4.852
 S          -0.40190613582685    1.78390439263766   -0.96742864688918
O          -1.34275647261465    1.11201525625731   -0.08987205669081
O          -0.97985655926280    2.56152289374814   -2.00133800681013
O           0.53004704288116    2.66136572647257   -0.10117391185001
O           0.55316810140699    0.72486981851965   -1.53916387786506
H           0.25831370136057   -0.28161797837008   -1.29702702505736
H           0.90184135544925    2.03358052776443    0.57232583797399
O          -0.13153188334563   -1.58229153016951   -0.96071756878463
H          -1.09251088159322   -1.56481136902961   -1.14208206695463
O          -2.50000078749918   -0.52911220130212    1.76828691936123
H          -3.04693431221420   -1.00896538549704    1.14011207826695
H          -2.17883885285003    0.24901538955908    1.28730653972473
O          -2.69897330623170   -0.79965322365523   -1.32590156167020
H          -3.03057364964168   -0.51260411935966   -2.17769162125521
H          -2.32679016709652   -0.00311978429575   -0.89275671419247
O           1.59371272400693    0.90467689759274    1.49744950969554
H           2.18404561943459    1.29002612711464    2.14785451735032
H           2.16481886627925    0.38306823689362    0.84561610760715
O           0.02704763976867   -1.44124954785372    1.63541960540420
H           0.50830089651959   -0.61318594898598    1.77325821798944
H          -0.90699704609074   -1.23562812168802    1.85399112177719
H          -0.04514098287814   -1.62190543900683    0.03845160656086
N           2.92604898695412   -0.48654787144783   -0.29424082237861
H           2.52254753994376   -0.06742347319760   -1.12596895088260
H           2.58120364053172   -1.43779644953621   -0.24201154085605
H           3.93171492261639   -0.51813282317241   -0.40269768956214
