    26
        -50.44283668  Gyration_radius:  2.5445384776 Dipole_moment: 6.569
 S           1.41081151847656   -1.23679413543639   -1.56662324313832
O           0.72370164175537    0.01574399100994   -1.69784627448656
O           2.47247680870641   -1.51989442625267   -2.45800329973285
O           1.90471399626790   -1.34515435679131   -0.07163649300944
O           0.38022956577875   -2.38997483650220   -1.59495452653676
H          -0.42642050936607   -2.09800709176093   -1.08689061942175
H           2.37239591784694   -0.48699561780024    0.16496410210536
O           0.52867540223941    1.66769680455166    1.72088468976193
H           0.40217707006085    2.44390208792736    2.26758518556471
O          -0.08126230922780   -0.99731390533913    1.83630196581463
H           0.01928809491868   -0.03078038881752    1.91213897133337
H           0.71140250941543   -1.29911031128510    1.36765908722475
O           2.89608736699349    0.85426559040983    0.79514727303441
H           2.06077415400243    1.24905042969434    1.14305589321747
H           3.46891954315516    0.69808448071471    1.54895318732237
O          -1.65841495822238   -1.76498048523479   -0.09088298266413
H          -1.15182210492995   -1.42409815441894    0.70009439748672
H          -2.03372401218641   -2.60721992987351    0.17485524967129
O          -0.47603968431870    2.15923630152580   -0.57207996094947
H           0.03833780485685    1.53484880414802   -1.11144281065322
H          -1.39904364982833    1.81718776558046   -0.62601160969129
H           0.10738807699770    1.89023816964295    0.82013356910825
N          -2.87584245414862    0.90008570811822   -0.83080881904541
H          -2.54125125575096   -0.04875039216036   -0.69117565246059
H          -3.15687347767668    0.98528977453991   -1.79930027332379
H          -3.69668505580821    1.03344413380752   -0.25411700653622
