    26
        -50.44283672  Gyration_radius:  2.5445850299 Dipole_moment: 6.568
 S          -1.07344846789171   -0.39383514158695    2.16005440981594
O          -1.37136526150802    0.54001012985900    1.11249485981015
O          -2.08208645502793   -0.68827133134843    3.10756304469679
O          -0.56034339467480   -1.71903893450957    1.47360243136477
O           0.21685960854624    0.05018446014902    2.88855892425390
H           0.85441308366624    0.40025349588499    2.20666316105377
H          -1.21086809736167   -1.96608193801150    0.74772458979756
O          -0.35707707636200   -0.99230107080428   -2.21625964838484
H          -0.41050165475705   -1.02382928903459   -3.17204479479366
O           2.00402768793800    0.76591984480901    1.12704649947672
H           1.89741230796240   -0.00186943725055    0.49646342161549
H           2.84705798663070    0.63573694599289    1.56657908852011
O           1.55236660550775   -1.37164109743972   -0.29331607408766
H           0.95021791593019   -1.73962898536219    0.37078349734810
H           1.00056393846468   -1.22004394046063   -1.08234706485310
O          -1.95549354972611   -2.36476763792928   -0.57780134894456
H          -1.43915451037592   -1.86342951111543   -1.25359142759404
H          -1.85420750120082   -3.29711526393521   -0.78085728365106
O          -1.15725423289258    1.31182489267737   -1.46820760854471
H          -0.39227858693935    1.92107837100181   -1.34406910132515
H          -0.66982355122135   -0.05952991915002   -1.95076260609343
H          -1.43846390002668    1.09927054591775   -0.56206311210448
N           0.97006236395063    2.86663891192799   -0.78330302521623
H           0.60209178153937    3.69878925225422   -0.34015738739175
H           1.73758214206870    3.14416295366484   -1.38169075199932
H           1.33971081775637    2.26751368379367   -0.05106271276157
