    26
        -50.43947635  Gyration_radius:  2.86894911347 Dipole_moment: 10.671
 S           1.97742647140867   -1.95095372707319    1.85670194449635
O           2.13026178131601   -1.12385114858009    0.68051857168120
O           3.12886604837497   -2.59869476144048    2.35909077182091
O           1.28744660215584   -1.08682551942512    2.94623410742955
O           0.89391754077054   -3.02881607989381    1.55816467234768
H           0.11263051726961   -2.57606991802164    1.15136466221654
H           1.22486921742602   -0.14079382068332    2.59096523793188
O          -1.09529479335105   -1.81317557011673    0.34434663392243
H          -1.69066725553548   -2.47089853578298   -0.01892321561769
O          -1.57507399830324    0.71858987219344    1.21852772615208
H          -1.48324155405790   -0.21873394546767    0.95509220873675
H          -1.98382723002355    0.72167563124850    2.08551510923248
O          -0.14202781028877    1.61251543643279   -1.09417074469862
H          -0.56437036540164    1.99579404600437   -1.88999535563371
H          -0.82256584817168    1.56898407624745   -0.41314474603225
O           1.08357301271326    1.17380372755017    1.79073153002739
H           0.14777990160507    1.18666406427916    1.51208104886115
H           1.59293248388529    0.90252024052469    1.01640524271664
O           0.50232189958682   -0.95270356100546   -1.43170268619467
H          -0.50498605689049   -1.49653484172120   -0.43392605559348
H           0.33164050842489    0.01893597343129   -1.42296151201598
H           1.28746117358734   -1.07001628697375   -0.86537128775096
N          -1.36773751361919    2.57434876096454   -3.38205781196577
H          -0.84264937220902    3.37243936179525   -3.71735345030604
H          -2.34188747646037    2.84369939727462   -3.32357903806298
H          -1.28679787420620    1.83809713824880   -4.07255356364311
