    26
        -50.44283671  Gyration_radius:  2.54453073476 Dipole_moment: 6.567
 S          -1.93356419176468   -0.22063143850621    1.47865339064869
O          -0.86501174802198    0.73637616187646    1.45554666119303
O          -3.12348502051886    0.11405157457908    2.16707873666388
O          -2.25360012186066   -0.60086669922431   -0.01923469846469
O          -1.39397065857270   -1.57632521121322    1.99218523730772
H          -0.48272445026461   -1.71240048070438    1.61113506158675
H          -2.35201812508535    0.25188802520435   -0.54291126847148
O           0.30966735980263    1.17014826447479   -2.13493986946204
H           0.76911423850880    1.67276629334965   -2.80848739688464
O          -2.28336430855834    1.44399613820111   -1.56499211524076
H          -1.32743328696113    1.43869804218538   -1.81155428743510
H          -2.78135340049777    1.26156485166143   -2.36466630889925
O          -0.06560403237492   -1.46332787750760   -1.49393589856775
H          -0.96292592729926   -1.35195659247167   -1.14546697333233
H           0.19602544801647   -0.58019923849752   -1.81282351627025
O           0.89453516399426   -2.08677766263529    0.84701312832892
H           0.64001241971052   -1.85152905843550   -0.09020739803750
H           0.97215709203351   -3.04293799287306    0.87082281308577
O           1.14601447704885    1.97039999189581    0.13856983566391
H           0.67343930525428    1.50274837270970   -1.24308019664553
H           0.38250422044055    1.72418823304333    0.68793014335763
H           1.87221488068036    1.38896689156000    0.46476914871157
N           2.88757158205940    0.15921475010392    1.18642844855912
H           3.06127329939527    0.43127951112005    2.14571242755241
H           3.76517465902042   -0.14364653362101    0.78342394212084
H           2.25535114580222   -0.63568832627518    1.20303095293734
