    26
        -50.46705308  Gyration_radius:  2.47042415935 Dipole_moment: 4.747
 S           1.60533429269838   -1.08541647973983    0.99283380170183
O           0.83235357305225   -0.28090889543633    1.90318827067354
O           2.35554050753478   -0.29833957986542    0.01815717122801
O           2.68958097291261   -1.85189503244945    1.85498734155578
O           0.81146753561556   -2.11605651652174    0.33322646544913
H          -0.74451291246230   -1.75487615810178    0.91038241701875
H           3.17232783216647   -2.31576727294400    1.17930089031362
O          -1.65052410242827   -1.48663277408517    1.16301868737826
H          -1.58965715797155   -1.28185939918439    2.09839340494960
O          -0.88606370019569    0.81686916263523   -2.28047220742443
H          -0.80194687716965   -0.16454789808022   -2.12092617287076
H          -1.09982823138636    0.91910460109210   -3.20849370771345
O          -0.75379146545669   -1.73909034490344   -1.76910314343622
H          -0.04668430209378   -1.91788139948189   -1.11342482316390
H          -1.56430392107603   -2.00008190483167   -1.32148674170455
O          -0.25288223079080    2.14086312430463    1.51944750640859
H           0.54110457982620    2.11804790163525    0.23341078028894
H           0.13550210697052    1.33373017753235    1.90837567588126
O          -2.26535178642208    0.99812815771436    0.21752471006752
H          -1.97038971512670    1.01215997542294   -0.70185483701830
H          -2.14647129795646    0.07787799598264    0.52796161907123
H          -1.13193178066733    1.85208927720681    1.17358956906757
N           1.07134161036265    1.85098287266407   -0.67955414647803
H           1.65501045106421    2.60856728563511   -1.01502012628401
H           0.37455328031633    1.56509363812425   -1.39305543154437
H           1.66022275521462    0.99983946821198   -0.43040699808178
