    26
        -50.46705312  Gyration_radius:  2.47023234766 Dipole_moment: 4.736
 S           0.73898161557474   -0.44780530941951    1.99810150230590
O          -0.49098942810833    0.30073985417508    2.01467091125398
O           1.86290687419002    0.29760274745453    1.43841546448524
O           1.12406403946819   -0.74315580675941    3.50493322729013
O           0.60195584631984   -1.74932022452030    1.35416876301380
H          -1.00349245907456   -1.67818323388776    0.80309959007894
H           1.95232870384897   -1.19916190780590    3.40058461486612
O          -1.89135410055993   -1.59816759206770    0.40083503676571
H          -2.43502245359682   -1.21182581808417    1.09055214857748
O           0.63677451109978    0.12394754151522   -2.49653623536791
H           1.02638303594637   -0.00969273100801   -3.36125787503612
H           0.68525480033246   -0.75707906466384   -2.03050482854876
O           0.63490635564268   -2.17394037971918   -1.25895005349814
H           0.80133520453513   -2.04515835436228   -0.30095239383675
H          -0.25494628228232   -2.53717928494584   -1.29859773562659
O          -1.30205925634322    2.26262888134558    0.37724248410247
H          -1.17059924159836    1.66506759530461    1.13837502998137
H           0.11187155339886    2.19127023859490   -0.15087154286745
O          -1.99256179821605    0.43308432692852   -1.41879737580641
H          -2.01612658300653   -0.35314889386668   -0.83693221339139
H          -1.75731208651553    1.70589424306534   -0.29996723914911
H          -1.19765446247080    0.34374286331181   -1.95980203209457
N           1.11011080556162    1.89399559201485   -0.46967461911159
H           1.71379800009155    2.69359579731849   -0.62241453449473
H           1.02343112503637    1.31570470567304   -1.32650981906513
H           1.48801568072133    1.27654420443675    0.31078969521324
