    26
        -50.44822598  Gyration_radius:  2.4652922337 Dipole_moment: 5.212
 S          -0.55711419217323    1.75807329450075    1.19356806404617
O          -0.01603330744480    1.46460306736392   -0.12048253372142
O          -0.01247438563123    2.88328371128461    1.85885783843949
O          -2.08873757418368    1.87097740528419    1.05517925161260
O          -0.36476256502219    0.52824637502177    2.10861988543991
H          -0.34574214976160   -0.35938855758386    1.63236205543226
H          -2.35411842475186    1.50674411672522    0.14841264906785
O          -0.17156690686289   -1.78756885862269    1.03195798113479
H          -0.16453421660669   -2.42013845971642    1.75296972529686
O           2.36444654444518    1.19978065448539    1.16746001629924
H           1.63747456604379    1.42788978626864    0.57183200914252
H           2.23608990348283    1.74807044059706    1.94436080633436
O          -2.39331333000527    0.94555921443882   -1.30685415137119
H          -1.52565063142086    1.31277991166128   -1.51446360531705
H          -2.26251832413814   -0.02776291498445   -1.30854929266787
O          -1.74379125013223   -1.67210791084488   -1.19255210850663
H          -2.43770946134716   -2.32424137604652   -1.08337449974275
H          -1.15736569181749   -1.74713149892402   -0.41569080707349
O           2.21525813105003   -1.41230852762231    0.28992661230446
H           2.01091372683085   -1.17340309391920   -0.64872357959893
H           2.46683575973217   -0.57165787527507    0.71116568931417
H           0.81455154272075   -1.68903368177616    0.73182427640607
N           1.13403442885707   -0.51184501645595   -1.99727678312254
H           0.33289326433056   -1.06322666835983   -2.28129363580563
H           1.60287363322661   -0.18516904648206   -2.83204145447486
H           0.78006092063753    0.29897549898630   -1.49719437900306
