    26
        -50.45524951  Gyration_radius:  2.46727718832 Dipole_moment: 4.696
 S          -1.74053086971808   -0.89454909605683    0.07015545672044
O          -1.79506984314253   -2.32114441473962   -0.08178296106236
O          -0.98649199884514   -0.45382213267245    1.23433261787928
O          -1.33540554735275   -0.16659325262030   -1.12856172159141
O          -3.24407738193334   -0.41053186646887    0.31779336463416
H          -3.62007126357153   -1.15889809301455    0.76951337708893
H           0.18245731639152   -0.31696304872903   -1.64325801715780
O           1.13415553305922   -0.42995211259479   -1.88555720386806
H           1.17499423193347   -0.43608742904132   -2.84272108066665
O           0.16603749631962    1.76396147170265    1.24874338724107
H          -0.42981754407008    2.22110691374717    0.51313010560612
H          -0.29183728577744    0.84875326188015    1.36724800543631
O           2.44684594469128   -1.15587792771078    1.71510095314538
H           3.21153985106210   -1.72520535915571    1.80936644372768
H           1.77285003797440   -1.68635733572208    1.23127087723143
O           0.90085569939722   -2.50813574725265    0.00881293098403
H          -0.06755851109609   -2.56625369305117    0.05866517669108
H           1.09966120504357   -1.97031584700047   -0.77025361204464
O           2.27482914439861    0.97182480282344    0.16876051839553
H           1.97128689590686    0.52839484049782   -0.64487818296189
H           1.10031134956531    1.51379257974509    0.81061028981179
H           2.47723418266412    0.23433591160001    0.79773807506095
N          -1.41792296293208    2.54138912130811   -0.58528753722981
H          -1.53978417845187    1.58124994232093   -0.92684057211556
H          -1.12834764688718    3.12724466994136   -1.35748578861628
H          -2.31614385462736    2.86863386026250   -0.25461489234405
