    26
        -50.46788079  Gyration_radius:  2.39863238422 Dipole_moment: 5.649
 S          -1.04602338781188   -0.44016957638712    1.40418799646474
O          -1.01889510420914    0.66492865861784    0.45230284085126
O          -2.38542802206911   -0.85737174013286    1.71974313712043
O          -0.22527556355879   -1.55595446419539    0.87738894266173
O          -0.34264939795926    0.04565012683200    2.70898263702671
H           0.51690074348085    0.44458802705959    2.43277868590072
H          -0.61031058012631   -1.54244415518297   -0.58703658413108
O           1.90909738990565    1.21573777904023    1.88889244057472
H           2.15786272348148    1.87387580961854    2.54000244368015
O          -3.26502131977606   -0.33244332694140   -0.72290517846132
H          -3.11245923683462   -0.61411589144478    0.20939411566676
H          -3.18033565564075    0.62491050750073   -0.68826645910206
O           2.20929576539844   -0.89755607161634    0.09270344829809
H           2.46697094752704   -0.23237422460998    0.74365722326306
H           1.37017532214589   -1.26831371476764    0.44477851433640
O           1.30924199143254    0.18296385305192   -2.10816271856682
H           1.93801004127318    0.02555792505550   -2.81361235592651
H           1.70976820141457   -0.21983828982856   -1.28347621948758
O           0.88423179089445    2.30719147546150   -0.24602988152071
H           0.05283815286653    1.84278515182432   -0.00296035933120
H           1.58715299908188    1.71897793377870    1.08471741363086
H           1.16920269484539    1.85360895710592   -1.05030559700651
N          -0.94254328935729   -1.28626454892855   -1.57736030985598
H          -0.24280055882330   -0.60868395847255   -1.94293564264570
H          -1.89186715647812   -0.84072236739820   -1.40353667911548
H          -1.01713947112466   -2.10452388501754   -2.17294187438138
