    26
        -50.46594280  Gyration_radius:  2.44210600651 Dipole_moment: 4.200
 S           0.34342606079263   -0.88340170436009    1.19437740344361
O           0.75560135922578   -0.74096305539377   -0.32519839510678
O           1.61805197297511   -1.13756709987184    1.85553632120147
O          -0.21449789562345    0.41678052249247    1.57741487057508
O          -0.61746947417485   -1.94926302064432    1.30225171056276
O          -0.35264784614250    2.11778158671218   -1.60684572456904
H          -0.35121850361969    1.28111192261804   -2.08182220758913
H          -1.15326600856790    2.10114517827057   -1.06460273600555
O           1.32118781142050    2.24523090125512    0.50191333227970
H           0.84102228061161    2.34224199933931   -0.34898550754901
H           0.71666397696665    1.69338050562017    1.05117215543484
O          -2.26057852882508   -2.91665956264181   -0.52446252044685
H          -1.98529106082289   -3.81993869522117   -0.68647187297100
H          -1.73287825128488   -2.60964517190656    0.24552868551129
O          -2.29901057415577    1.08601089719266    0.17741232020337
H          -1.54562825414976    0.84924446256382    0.77706418556899
H          -3.09551262491553    0.98298644083445    0.69964011545311
O          -1.42579380483071   -0.66660125625719   -1.67627604525524
H          -1.80938706144656   -1.54577261714511   -1.47065155555043
H          -1.93424511273961   -0.04121805408066   -1.12140288270494
H          -0.08385710849975   -0.73726306572543   -0.88299172269122
N           3.09777955990379    0.39026093597223    0.47005265745926
H           4.00905039988904    0.61920332169628    0.85312849420530
H           2.43696854060762    1.26319359341559    0.41659421585880
H           3.17545031393868   -0.03649322168207   -0.44825185625609
H           2.54607984350213   -0.30378573308422    1.11587657891262
