    26
        -50.45168058  Gyration_radius:  2.42518530763 Dipole_moment: 7.525
 S          -2.27833540285132    0.02022210148345    0.32275271540738
O          -1.42533614601194    1.07563868762469    0.84616831097739
O          -3.49884536647482    0.43891084355895   -0.27858111082343
O          -1.37983490375636   -0.67903089331025   -0.83926074552365
O          -2.37289522857253   -1.07687787299696    1.29907861613442
H          -1.05528673385362   -1.00117159305890    1.75742682036596
H          -0.99623054820940    0.03295495355049   -1.40966997179452
O          -0.12763568043383    1.13426958651930   -2.26991063775011
H          -0.67455396664228    1.54960105590307   -2.93818832880791
O           1.89416791574667    0.91527254313526    1.02201036247271
H           2.77885832767469    1.10549701856559    1.33494031929550
H           1.99951654035218    0.44555337697792    0.15463762814597
O           0.44072310702661   -2.51283107299874   -0.27951157312164
H           0.16549488390633   -3.40844338763801   -0.47990552159202
H          -0.31086620725452   -1.92704339789187   -0.53447770327116
O           2.00600636400848   -0.39066178831059   -1.27202460403373
H           1.60648841481288   -1.24895347719057   -1.07176440780769
H           1.36794999118910    0.08465607516514   -1.82455658164438
O           0.20877892622081    2.75276998836126   -0.28555601151935
H           0.97371049751957    2.40343326149557    0.19468553657449
H           0.04009283738118    1.83746957651398   -1.56563711326609
H          -0.54789812399665    2.33494027823415    0.18231953934655
N           0.05261842839822   -0.97835538496324    1.96369588445429
H           0.41349379595071   -0.04599224970563    1.70018675622643
H           0.46573684386107   -1.68429424932125    1.33336075218053
H           0.25408144405854   -1.17753397973684    2.93778104936528
