    26
        -50.45524936  Gyration_radius:  2.46649877652 Dipole_moment: 4.699
 S           1.31631817908751    0.01913699534374   -1.44363172477095
O           0.86539685731782   -0.06236085128827   -2.80421484072907
O           0.84576423581347    1.20034159055021   -0.73566676195839
O           1.10254591107110   -1.19030439781616   -0.65460052331761
O           2.90856179665865    0.15507208007668   -1.50498965114758
H           3.03595680989884    0.61381683478026   -2.32909392881264
H          -0.40446074000299   -1.61474947683654   -0.28038048551892
O          -1.35052885241700   -1.79889496518721   -0.06091435104488
H          -1.45580139342662   -2.75103052095450   -0.07679080982141
O          -2.57155538964753    1.90127526706285   -0.16779120899220
H          -3.47752417410452    2.06771920193727   -0.43098746831398
H          -2.15847520557373    1.41183469958433   -0.91562756739403
O          -1.71466292661712    0.18949356180619   -2.03097888618543
H          -1.77100633978311   -0.60600566167132   -1.48359844405446
H          -0.82598188155475    0.18735170962715   -2.42303643810042
O           0.54436897217426    1.16392432300772    1.74503152980487
H           0.65964246092975    1.30485322786630    0.73102949143040
H           1.21422974437939    0.37798836363469    1.94064834236364
O          -1.77548331754173    0.23715993915634    1.71576636833780
H          -1.70473043914261   -0.56716042965953    1.16892281466268
H          -0.44474715407628    0.78685294391653    1.82757324591524
H          -2.17940317835491    0.91426249235482    1.11703821090263
N           2.18131122086733   -0.78161938839492    1.85610415276969
H           3.15548282231184   -0.50931272806198    1.84452675640738
H           1.92917453168413   -1.08443140449788    0.90848369185597
H           2.07560746004852   -1.56521339633438    2.48717848571463
