    26
        -50.45996065  Gyration_radius:  2.57745728281 Dipole_moment: 7.110
 S           0.67996450465407   -0.09964490302499   -0.41979752965446
O           1.33444480750803   -1.23485828396476    0.20767130043996
O           1.48252204409538    0.62539060267992   -1.36495508430082
O          -0.63184977980242   -0.48771342166164   -0.95002552628897
O           0.35967200113727    0.87090369968845    0.80088065644060
O           2.07871718488977   -1.64384964898967    2.66974287963993
H           2.58680014225885   -2.45554810482852    2.70498819835170
H           1.98540600383189   -1.42116415679660    1.71101440188398
O          -1.09387082211347   -2.58986285510484    0.44553051639524
H          -0.28191683190030   -3.07445179275301    0.27086597220317
H          -1.04276663131209   -1.81598677670167   -0.18045291945493
O          -1.62874148273274    0.54566163918549   -3.21041323592888
H          -1.31735960322731   -0.05340856956212   -3.89079351112552
H          -1.35480530943251    0.15091849211645   -2.35773200699116
O           0.08953558281681    2.54277170512614   -2.57184355429203
H          -0.62987728529132    2.00799482436240   -2.96063153098652
H           0.74761600062030    1.88338245473035   -2.26903463024230
O          -0.57548581445387    3.03453709689253   -0.13693926974517
H          -0.01575254172239    3.76458124817442    0.13555527241728
H          -0.41231770643831    2.92523852543114   -1.12858794180813
H          -0.03341480359241    1.72785968196608    0.41880275697406
N          -0.48981895975711   -1.03921204070540    2.44998638433958
H          -0.27507042555743   -0.17376276785519    1.90298783266727
H          -1.16384975744768   -0.86583863122419    3.18821650347339
H          -0.83549926676170   -1.75637104113977    1.72247495436637
H           0.43771875971784   -1.36756699604266    2.81248914122554
