    26
        -50.46191420  Gyration_radius:  2.4932837218 Dipole_moment: 8.569
 S           2.07829263157700    0.01409388674800   -1.42533593505366
O           0.79232986042659    0.54572412291926   -1.86246639251182
O           3.21913156488208    0.54225216546699   -2.09352225066008
O           2.14695721028593   -0.01284938545021    0.04039196641356
O           2.01606876931867   -1.55948208948093   -1.79396924472163
H           2.48429301839259   -1.57546794288382   -2.62147599650523
H           1.11170192205659   -1.07801870379940    0.36468335247471
O          -1.01225491649565   -0.16240391039279    2.36360555911679
H          -1.16145480871028   -0.10299856590300    3.30746248556857
O          -2.62314614856274    0.49107358990691    0.25328200876273
H          -2.12922672797108    0.25285065965541    1.06329220536372
H          -3.50822652933010    0.73817724267316    0.52277406328496
O          -1.19711988076611   -1.11643619969849   -1.51525172177997
H          -0.50065396293632   -0.49485396588326   -1.83303334511108
H          -1.87424386726045   -0.55685401814217   -1.10324070292401
O          -0.62413074823330    2.37616901428676   -0.47645416847931
H          -0.07036752642847    1.86162164549510   -1.09252523559076
H          -1.44020131994376    1.86534029983607   -0.37796587530282
O           0.70479772919240    1.59781378539178    1.68167690740026
H          -0.32595041808074    0.56395590266222    2.14469551726049
H           1.40342457983271    1.11168214076911    1.20847854501866
H           0.23223803237459    2.09018157983467    0.96725704752497
N           0.27704003588793   -1.72320794312612    0.54689124247950
H           0.59127993291104   -2.67874372351592    0.67110951522601
H          -0.35977042397670   -1.62762192161189   -0.31586417648738
H          -0.23080800834148   -1.36199769580705    1.37550462926684
