    26
        -50.46398167  Gyration_radius:  2.43132228246 Dipole_moment: 7.718
 S           1.75281865194623    0.31218893827531   -1.18960594068780
O           1.51193891461129    0.78840019704115    0.20037092684467
O           3.11415168907483    0.00101061257098   -1.44749636230425
O           0.82334593335075   -0.80266667680271   -1.44441773407009
O           1.30525194557029    1.48648341441898   -2.11596199067098
H           0.36203737644796    1.66339097883645   -1.91049915162565
H           1.19610943188134   -0.33581122170154    1.10568506164356
O          -1.20049084723006    2.16864766135178   -1.47715080773979
H          -1.32556320906917    3.04014987699194   -1.85551305461731
O          -1.73181134195088   -0.26813636081833    1.72508603867866
H          -2.57866205652860   -0.56856503249269    2.05578848401586
H          -1.76867134885582   -0.36876407376725    0.72319118589163
O           0.98173452274588   -3.03568476228023   -0.13716481529128
H           1.06144970444713   -2.27545207766664   -0.76700392970244
H           0.23963498134393   -3.55447388309803   -0.45373031226933
O          -1.69734539163738   -0.49072519055350   -0.85117895209526
H          -0.76060032618977   -0.67666591192192   -1.10969809680539
H          -1.87480143549936    0.37695894307732   -1.23647655358169
O          -0.55010021293080    2.22432255173699    1.04552305273792
H          -1.04490171705323    1.51655947766590    1.48234620271494
H           0.31826931885332    1.82841195779543    0.81753861443328
H          -1.03286561635261    2.30100618476762   -0.50065103950600
N           0.82080839643239   -1.15039403636600    1.72165117623460
H           1.37547551157229   -1.24415555290357    2.56494855138764
H           0.87424754193013   -2.01652534394792    1.12321728671159
H          -0.17146041691498   -0.91951068019606    1.93120214968804
