    26
        -50.46117198  Gyration_radius:  2.4167703355 Dipole_moment: 3.322
 S           0.96397883481191    0.11282141057881    0.33770478003171
O           2.12271255309396    0.93803927840159    0.94281981059282
O           0.76188232505676    0.58309902655684   -1.02510698418971
O           1.27992639584175   -1.30125152775773    0.39658193578280
O          -0.23089955663631    0.40306346988780    1.15732454141446
O          -0.67387885410578   -2.39392029505639   -0.99459164590066
H           0.11662791532016   -2.17919968628612   -0.44584077957178
H          -0.42895071585285   -2.09704161578325   -1.90274951789273
O          -2.15895443163868   -0.61904058816316   -0.10615046986490
H          -1.62341777525755   -1.47468183930989   -0.51835318514028
H          -1.48507768681025   -0.24022010602651    0.56515149322465
O           0.12768580241794   -1.00753927343675   -3.11197659375754
H          -0.51587504823694   -0.45437159033235   -3.56141831222356
H           0.58518241748081   -0.42914509070207   -2.47416859128031
O          -1.10294848072359    2.84050080528863    0.41088286006941
H          -0.78770124128487    2.01085179129139    0.81869658551095
H          -0.33260624311573    3.40458480780649    0.32863065307698
O          -1.70155481026289    1.27778691520756   -1.70112553197861
H          -2.15476723002164    0.12304332174695   -0.84256229659345
H          -1.82676930586959    2.04780119937198   -1.11431720514733
H          -0.73726550908586    1.10289109283156   -1.62022061970434
N           1.98655457041811   -0.57410748169319    3.03365736305100
H           1.13920330560173   -0.34852586992550    3.53836903955752
H           2.23779430164985    0.50016992918016    1.84104087965493
H           2.67358463455108   -0.92408130523245    3.68888994434957
H           1.76553383264866   -1.30152676844967    2.35883184692624
