    26
        -50.45488625  Gyration_radius:  2.4420577731 Dipole_moment: 6.275
 S           0.78918094816787    0.87407780088821    1.93614819270002
O           1.21343108426216    1.48024418663430    0.65383968259944
O           1.30233586031672    1.51927668327097    3.09132571992638
O          -0.68897105437324    0.74987115180217    1.93139915255312
O           1.32763356704223   -0.60316200748748    1.91992542459909
H           1.39242522797143   -0.95333796637242    1.00294747542830
H          -1.28262916339622    1.52918708334739    0.75241190923857
O           1.68932187063945   -1.69844157832678   -0.48321097893165
H           2.55662158066641   -2.10467440467513   -0.45586083705914
O          -1.17498885271096    0.34808159526790   -2.18393500123606
H          -1.72077656238349    0.21256346545228   -2.95906633212401
H          -1.15435380263628   -0.54073802959731   -1.70556740047767
O          -1.44785188699691   -1.75721341806975    1.66979968346418
H          -0.80073657507996   -2.26076305726074    2.16774147606682
H          -1.23642818106149   -0.81537311353325    1.84947444032626
O          -1.02654574777390   -1.91739975090260   -0.96190372282472
H          -1.33716302936503   -1.89984570963068   -0.02832327836358
H          -0.07672191214370   -2.09381743697688   -0.89788089260188
O           1.62920352101054    0.53426470284198   -1.80936788065101
H           1.63260638406958    1.00887871756433   -0.95429481451547
H           1.76068067850033   -0.90106708882418   -1.08212989556099
H           0.71445073691593    0.56188799412185   -2.12932957248657
N          -1.11188784715414    2.08892597796944   -0.14762517640642
H          -1.57230462106587    2.99110689387795   -0.16442559170545
H          -1.31905288650420    1.50687801181183   -0.98829131707997
H          -0.05747930689394    2.14058929680415   -0.02380046488509
