    26
        -50.45826148  Gyration_radius:  2.56736540573 Dipole_moment: 6.601
 S           0.98283144579314   -0.39282494475714   -0.51062956680096
O           0.27474554977174   -0.83976602510765   -1.68638959937427
O           0.28408520197927   -0.72777690336150    0.72755910988627
O           2.37784390684676   -0.84523090989869   -0.44861825757634
O           1.09336345564340    1.17071414652622   -0.54864325887966
O          -2.01453972888858   -2.22354109294004   -1.77280990667091
H          -1.79864253943168   -3.15213603507232   -1.86825070964193
H          -1.16298988999469   -1.74379987309905   -1.80723176778808
O           1.36882739108755    0.11678101846702    2.92640903417237
H           1.40472533152249   -0.64116896346353    3.51259562222109
H           0.83598665686061   -0.17775091073316    2.14122409652077
O          -2.40922479413332   -0.99359897435196    0.64207295314753
H          -1.45136957128845   -0.91622611917472    0.79891487411766
H          -2.48066836108276   -1.52385579168746   -0.17228731175911
O          -3.00663563736031    1.37972897047956   -0.33944073049722
H          -2.81759093064379    0.52533093327418    0.13018958512324
H          -3.85760341392840    1.26206944303522   -0.76450833819172
O          -0.93941227696401    1.58953360723111   -1.97774045760985
H          -1.72868599557007    1.60326225618356   -1.37696947658684
H           0.29133531663664    1.47535671408103   -1.10074459756217
H          -0.85731314888721    0.68185033806302   -2.30058237367695
N           3.16374629205012    0.89881365879547    1.17989098781679
H           2.76399411045264    1.73303135631253    0.75073278108543
H           4.15209107143555    1.00937841197222    1.38077762816714
H           2.58829782326205    0.65127945823200    2.03493305661008
H           2.94280273487483    0.08054623101781    0.44954659375424
