    26
        -50.44646997  Gyration_radius:  2.48318047514 Dipole_moment: 5.856
 S          -1.58416973375412   -1.22268885449920   -1.28329995838413
O          -0.31989630135542   -0.85451009054223   -1.87126397540858
O          -2.35092700124885   -2.22653694874961   -1.91930493464516
O          -1.30281199975314   -1.65301799326503    0.20095082167036
O          -2.42807286213133    0.05271093973506   -1.08401634383640
H          -1.75317493950166    0.80916403387175   -1.02955501721430
H          -0.32558315941031   -1.64377603338040    0.41452010960030
O           1.20461922528858   -1.64292636686640    0.85839392060634
H           1.46977563296621   -2.51374475567513    1.15820465521669
O          -0.55236862314023    1.75892126910301   -0.95245444132189
H           0.02862941972311    1.38369599673762   -1.62329567746882
H          -0.10584192497078    1.59623568937533   -0.09197255382865
O           0.62088974934111    1.03442255082170    1.38786587394794
H          -0.28314266483543    1.01686492942198    1.78840464288358
H           0.89679482298060    0.10607343915534    1.36981822718915
O           2.50462731744970    1.57711918857700   -0.61121021713928
H           1.95805523372222    1.55384459512689    0.18994628971100
H           3.26611920381012    2.12343805541107   -0.41497636010422
O           2.31248273241540   -1.04950033946098   -1.37804519688156
H           1.71445088083917   -1.46246250981658    0.00060857519698
H           1.45434637298028   -1.05523207601316   -1.83627758720088
H           2.53045982715674   -0.10805756180175   -1.25046122227391
N          -1.97463452992907    0.68427881650057    2.00842010025013
H          -2.37367884101105    0.60923628332065    2.93579348351976
H          -2.07229073301445   -0.21780928503822    1.55129765560396
H          -2.53465708461642    1.34425703783867    1.48190914038819
