    26
        -50.45137702  Gyration_radius:  2.44188996724 Dipole_moment: 3.688
 S           1.82901122208517   -0.52276298431506    0.32309346023072
O           1.66056099148846   -1.91149011820743    0.64363304262963
O           3.14922257550611   -0.02306335092545    0.15927318971589
O           1.03113075881265   -0.21878042386581   -0.97017061404437
O           1.13691583784598    0.33277942474644    1.41402890762834
H           0.20864476507790   -0.00211702769695    1.61860289073528
H           0.26241060736729   -0.84742108467832   -1.11884625680441
O          -1.27667898931654   -0.39979984229415    1.86146376567938
H          -1.64726542385080    0.12474684572472    2.57331368460534
O          -0.93383740650023   -1.84965193269999   -1.38382803833917
H          -0.97221674402069   -2.36212277487318   -0.51861213258542
H          -0.68275916975550   -2.48163168376835   -2.05965631964828
O          -0.76759673337477   -2.97340808458058    0.93969685594182
H           0.19693839726603   -2.82260255882993    0.95854212037079
H          -1.13867548812571   -2.29199748304231    1.51744608106741
O           2.13493615490129    2.47862947950989   -0.09775161162380
H           2.61826097698756    1.63986942441810   -0.15871105319935
H           2.12607359673325    2.69777404267609    0.83631419185315
O          -2.18821673035009    0.46548070994131   -0.35748390135979
H          -1.70046168904967   -0.05055819497421    1.00170237833259
H          -1.58786926264354    1.20443115676331   -0.67381091535008
H          -2.02713228051309   -0.27509535998684   -0.95378923957668
N          -0.54607528923265    2.34485699316634   -1.27178251561881
H          -0.87301914401080    3.30245066071192   -1.22316198878151
H          -0.37765010225039    2.13067145213789   -2.24741952022955
H           0.36534855890653    2.31081270492172   -0.81208646162088
