    26
        -50.45137702  Gyration_radius:  2.4419410932 Dipole_moment: 3.696
 S           0.00943594132574    1.58902664256083    1.09480510803389
O          -0.88413740810162    2.43292099741806    0.35389146166578
O           0.44911575986705    2.02832258321874    2.37278343007625
O          -0.65595749765759    0.19948056560880    1.26248327033084
O           1.26923804692288    1.31329221643352    0.23601981129708
H           1.02949651616990    1.04900376825484   -0.70670150564295
H          -1.32227889285711   -0.01078751843857    0.54145286330449
O           0.70100495568693    0.50112796053499   -2.12571343593424
H           1.50752654386750    0.39260859164499   -2.63263524073400
O           2.10463925586378   -0.11490884239343    2.50485743231401
H           2.85508252289537    0.29007550354175    2.06499727311186
H           1.47463023696861    0.60790224421305    2.65165127987966
O          -2.39994292409659   -0.34312061987955   -0.56966963887069
H          -2.26329999063188    0.40876812589787   -1.22444428877535
H          -3.28147882216534   -0.22961853973277   -0.21001102109081
O          -1.80652419903099    1.70122915569174   -2.03846121026872
H          -0.96307464941809    1.42994664929209   -2.42680836792957
H          -1.56497349159813    2.21795471857848   -1.24586673419142
O          -0.11488659673966   -1.79584713449690   -1.37672319198718
H          -1.04067590259585   -1.63016828514799   -1.16347244435546
H           0.38749886762170   -0.43983819700294   -1.88672244257732
H           0.32944852297833   -2.01534673148006   -0.50432780508152
N           0.95881242876435   -2.34627145426024    0.99132375475324
H           0.20493854409307   -2.68212572301410    1.57864901463125
H           1.32383590925646   -1.50908655821176    1.44855920456181
H           1.69252634261898   -3.04454012884217    1.01008344346624
