    26
        -50.45015628  Gyration_radius:  2.45009106886 Dipole_moment: 6.615
 S           1.47893296290732    1.28855711633470    0.07825741074960
O           0.35962359115144    0.85004557439649   -0.71497267260338
O           1.72535262007454    2.69444847791014    0.10264356696617
O           1.25325403351748    0.82781721208883    1.55145116347477
O           2.71364024979446    0.51528571774395   -0.36970470413321
H           2.36807263688308   -0.32855113166722   -0.97629611359360
H           0.55229516875415    0.11962380663910    1.60197300480145
O          -0.66854942943367   -0.89978000469019    1.77892757876804
H          -0.85679119588925   -1.01191256995006    2.71235089795106
O          -1.83140865854906   -0.42403421979691   -1.58502745298121
H          -1.06064193698834    0.15535499527688   -1.47276941900507
H          -1.51223759532553   -1.29971121947824   -1.33175661754378
O          -0.38313843646396   -2.58844328188716   -0.32748472628886
H          -0.74043458779224   -3.43928032586773   -0.06820318285156
H          -0.44931941538442   -2.00599751185258    0.45429243060956
O          -0.83328091615261    2.96052212052213    0.99207439183432
H          -0.67964680161301    3.34129605892988    1.85926313160910
H           0.02708150704273    2.96270515530841    0.54256725524495
O          -2.39427054413637    0.69051497585579    0.82553806313977
H          -2.41894501618548    0.38193017216690   -0.10526272872290
H          -1.40137288089604   -0.27187081122710    1.41297699843698
H          -1.92663005028190    1.54711736419841    0.80851933631527
N           1.79729373768445   -1.35212261267843   -1.79105769388005
H           1.10632519288427   -1.87539987662722   -1.25433008943306
H           2.46667669789870   -1.98853222614316   -2.20325564537264
H           1.30811907650239   -0.84958296550591   -2.52071418349104
