    26
        -50.44073492  Gyration_radius:  2.4499564087 Dipole_moment: 6.014
 S          -1.90137500507181   -0.67476577175690    0.25065331434926
O          -1.35862444873164   -1.99600100297789    0.17566424740111
O          -2.50563775936053   -0.28346079221444    1.47878035042236
O          -0.78950345069829    0.36081311333764   -0.12832599430540
O          -2.87224668423908   -0.45668016610428   -0.93337188752771
H          -2.28422660993490   -0.60802394847451   -1.72548945552615
H          -0.43885476909436    0.91570645681376    0.62012252693976
O           1.43682974730258   -0.34454061388542   -1.73502729283052
H           2.13044694744280   -0.75574617394629   -2.25488819729527
O          -1.06889965133071   -0.61606912088978   -2.80031657612172
H          -1.14519151763244    0.17901509955406   -3.33224399393072
H          -0.20218145874796   -0.55616437075199   -2.33976957604306
O           1.81529369894857    2.15023380831182   -0.73892173389988
H           1.44345936480360    2.70761269518171   -1.42431765255222
H           1.70815079730272    1.22705556399345   -1.05499094736756
O           0.32638351658866    2.08852743548127    1.46410964713403
H          -0.18583843510913    2.89945054808777    1.45924794589660
H           1.01336685747476    2.17527287256061    0.75989333117582
O           1.28990459192385   -1.82778394536021    0.36934836116276
H           1.19893746156370   -1.36099088575343    1.22861695602641
H           0.38934364981996   -2.16599522413809    0.22125009317344
H           1.38705085307521   -0.88732921783123   -0.88483960490183
N           0.30853335687186   -0.66077379225418    2.63500490839277
H           0.49929243405005    0.33205033999414    2.70940544101327
H           0.48799680889991   -1.07770895779774    3.54016786240660
H          -0.68241030613040   -0.76370395921110    2.44023794679262
