    26
        -50.46044992  Gyration_radius:  2.45540413107 Dipole_moment: 6.763
 S           0.68255632234439    1.10061470505259   -0.87489539080090
O          -0.67032275655152    0.56602386605921   -1.03235186947843
O           0.72645235433421    2.30509851263776   -0.09727673395775
O           1.50353878809630   -0.02558085114882   -0.12633068659598
O           1.36976481172561    1.18563195178297   -2.16568809977243
H           1.56596910317655   -0.17234889477201   -2.47577622228628
H           0.92732767109555   -0.53804916598884    0.50370518272142
O           0.07103434779493   -1.58802650776759    1.37852897602842
H           0.61732343853446   -1.90874814849961    2.09800938995056
O          -2.76870199084749    1.23571176641117    0.45497985426001
H          -3.50452149951517    0.83943551340362   -0.01400325802699
H          -1.98492479263228    1.11581313844267   -0.12013980583238
O          -0.48845023119825   -2.00085725640998   -1.31448255132391
H          -0.34808478919026   -2.22755990206112   -0.38299315731239
H          -0.75496860931828   -1.04922464800507   -1.27675191243233
O           0.45805973621985    1.95975904544973    2.50701740255612
H           0.60458083390058    2.08914885981933    1.54368683379084
H           0.21872237276483    2.82449842806774    2.84505123307871
O          -1.47477059526774    0.08984178129001    2.52660258822429
H          -2.08053320368044    0.48553738941079    1.86774201778756
H          -0.61395004729752   -0.97750631868144    1.82025704782336
H          -0.79369932015148    0.78003191588606    2.67595062476022
N           1.67783302582128   -1.28132926509211   -2.58599873162808
H           1.71739240018502   -1.55009144237915   -3.56414483076205
H           0.81701972681975   -1.70370862325220   -2.09332787355903
H           2.52535288285143   -1.55411583965678   -2.09737001718857
