    26
        -50.45667197  Gyration_radius:  2.5598564446 Dipole_moment: 5.738
 S           2.27515494756643   -1.28362990509810    0.63592973276570
O           1.08445164966880   -0.96110583450103    1.42442610162295
O           3.15970373176796   -2.22922796798744    1.22976873808998
O           1.68590864555448   -2.01639876411547   -0.68983419811764
O           2.88071639792697   -0.06059228863884    0.11637526850740
H           1.76624503029532    0.73673544140533   -0.42939882878118
H           1.93960187989745   -2.91452511949096   -0.50522082720318
O          -1.35471051500767   -1.62044389096067    0.49692677291152
H          -0.49249768601860   -1.52774930890366    0.94465368973958
O          -2.11981641895846    1.55736045259586   -1.59343385898504
H          -2.98517373673402    1.63905417943476   -1.99666192912814
H          -1.75772844431823    0.70742835716903   -1.88537923508673
O          -0.59188685826468   -0.75464660412208   -1.79705960461141
H          -0.97619807143402   -1.15824375320975   -0.95063880251592
H           0.13061889574830   -1.34816136729879   -2.02299260110680
O           0.15689423745445    1.41703596860781    1.91083259449572
H           0.50315386590747    0.48979988620020    1.83859309477935
H           0.60704115352526    1.81264565346613    2.65768458577570
O          -2.43284227116883    0.78398633078917    1.08451626120244
H          -1.66499435720131    1.12440828669798    1.56461401775812
H          -2.39459160909611    1.18619232089708    0.20127397871781
H          -1.90222777129386   -0.87494203220928    0.82622839176396
N           0.84299451326325    1.23025925158163   -0.71480903081686
H           1.00109853403632    2.01021075324963   -1.34407013404041
H           0.41245071139900    1.55213529274228    0.17008068985751
H           0.22663354549372    0.50241465171428   -1.17240487760405
