    26
        -50.44798323  Gyration_radius:  2.52228558789 Dipole_moment: 2.354
 S          -1.06610619272898    1.17679432227496   -0.32398008946278
O          -0.89645035724655    0.94866821307909   -1.73501125621197
O          -1.58962110416323    0.07889379707584    0.42725493388957
O           0.26653404547125    1.65555505348206    0.26162118197643
O          -1.97002295282438    2.40473755051746   -0.09684894006177
H          -1.59831777366995    3.08774754174497   -0.70686540731669
H           1.04122805946098    0.93474532429552    0.22765665117378
O           2.10936533815736   -0.00925404514054    0.17715120740586
H           2.87825431314973    0.37376107045151    0.60530076835853
O          -0.59929981939444   -0.35127070817558    2.89623755031177
H          -1.29191452554853   -0.75345625599676    3.42335326903061
H          -1.00074511487167   -0.13657500796196    2.03411087269095
O           0.87068518099714   -1.15021788137276   -2.17792079221085
H           0.19743793936707   -0.45590261014889   -2.20486899869110
H           1.55027516388687   -0.83628876941790   -1.57153993077310
O          -0.53372875263832    3.58616340871243   -1.91181151029723
H          -0.55348726124528    2.68150486480175   -2.26754970503215
H           0.35453736256492    3.73519831726669   -1.57782377835654
O           1.29781380802749   -1.85613087411426    1.67139292487685
H           0.71565189768510   -1.36474844109932    2.28331961048580
H           0.67360611061025   -2.32755380732132    1.04900331175311
H           1.81091580979197   -0.80719279144174    0.79254117962977
N          -0.48950774365605   -2.67327203687390   -0.10551276140701
H          -0.97058257278875   -3.55378617584335   -0.23556031976099
H          -0.02128314972391   -2.43850513291925   -0.98089591425970
H          -1.18523771869849   -1.94961492594701    0.04724594224540
