    26
        -50.45060366  Gyration_radius:  2.45486900139 Dipole_moment: 6.038
 S           0.85538000044632   -1.59483958135525   -0.70965248429447
O           0.44837448026948   -0.24752504259790   -1.01701288175895
O           2.21296510972710   -1.90961674568445   -1.02613212576608
O           0.60398165345715   -1.84997473770122    0.80396072278375
O          -0.10174136235162   -2.56949774327537   -1.38350842274065
H          -1.05262413525133   -2.08055004348523   -1.34404268410586
H           0.46237953170925   -0.99998818153080    1.31700586889299
O           0.22289307685409    0.28322602332578    2.19590084508760
H           0.66827829799744    0.17095305707521    3.03733607755451
O           3.21363125586931    0.54891115977782   -0.47895918773119
H           2.94519719121183   -0.37467901259140   -0.63172511837198
H           3.35771554275375    0.92340940827779   -1.35034732680901
O          -0.72480090184472    2.14295933442194   -0.75570459838588
H          -0.30003593765472    1.32491023866114   -1.06117711036774
H          -1.42981822704475    1.83997657598863   -0.16969681254515
O          -2.25818556521257    0.51808649702715    1.07650306121574
H          -1.39584361034111    0.40558989482770    1.51694758705580
H          -2.88244082703789    0.76848267850377    1.75951203902691
O           1.43439095183057    2.08820709025293    0.90293994059749
H           0.72768370371886    1.03587689697832    1.70235689646822
H           2.11770128105942    1.58914917397784    0.40948128254629
H           0.74216720719065    2.32547501553655    0.25067932698737
N          -2.26590090770573   -1.25364946606924   -1.26641405414168
H          -2.19510649330088   -0.59282097223394   -2.02964338077998
H          -2.27419713413059   -0.72266946492376   -0.39644681669022
H          -3.13204419219343   -1.76940204317544   -1.35216063371956
