    26
        -50.44798323  Gyration_radius:  2.5227275736 Dipole_moment: 2.353
 S           1.30722869016998   -0.95408881532059   -0.08370380440572
O           1.11861000749535   -1.09654021798089   -1.50355649773101
O           1.55762288352144    0.37393225632587    0.38234980564491
O           0.10395613219229   -1.57063243120437    0.63762293744028
O           2.45776156575808   -1.86634818889492    0.38597653179147
H           2.26021200587452   -2.73512228695000   -0.04180316428845
H          -0.81067376976304   -1.06625444744376    0.46747132724667
O          -2.06175313797531   -0.41810673477612    0.23984866684913
H          -2.73447229158806   -0.85356051589499    0.76808449773303
O           0.45136728369609    1.12826302712430    2.72131632465547
H           0.90629245739395    0.81602246492428    1.91758926650710
H           1.02755718681798    1.78325432629480    3.11939575885414
O           1.35837104204132   -3.71789671771714   -1.06862994668581
H           1.18256157289107   -2.93634239370043   -1.61967211816710
H           0.51931973726044   -3.98085077349618   -0.68181534449832
O          -1.06367420030334    0.40090456901359   -2.35161931229725
H          -0.25213615820226   -0.11447992835210   -2.24277023915200
H          -1.66762136599305    0.09091003639789   -1.66807477732755
O          -1.71104652518539    1.85373701524355    1.25002367369682
H          -1.04601505468621    1.65695954029619    1.93820781084094
H          -1.19619114153116    2.29699529011547    0.51684408771636
H          -1.96033075437981    0.54436783156954    0.64836684964046
N          -0.11777302832405    2.61911369623303   -0.72391470444867
H          -0.50499185123987    2.09269266763384   -1.50724793940537
H           0.71901005752266    2.12232190279803   -0.43402376191279
H           0.15680867647622    3.53074880775652   -1.06626593829214
