    26
        -50.44238258  Gyration_radius:  2.57220868776 Dipole_moment: 6.708
 S           2.45481038606124    0.18653027219686   -0.22624596052331
O           1.42625891397896   -0.26899964064607   -1.13378493781654
O           3.77843746405663   -0.24060588149062   -0.48472262487902
O           2.35382508166519    1.73073211870373   -0.13078121952508
O           2.07861400243816   -0.26977989287606    1.21078654662410
H           1.14522757481955    0.01771566393847    1.41260914298132
H           1.63836161851237    2.02746493950001   -0.78207331314655
O          -0.35913764321286    0.41731396496154    1.79266205143405
H          -0.43055502728321    0.39865125823778    2.74875630026458
O          -2.65827687853204   -0.12056778391071   -1.13196730115601
H          -2.35533710187351    0.74239822450952   -0.81480463284529
H          -3.57994961710301   -0.02348924460517   -1.37444925443031
O           0.42528446446547    2.10269469826832   -1.75656415226792
H          -0.36644380076258    2.19156028303917   -1.19358014968193
H           0.52153981692582    1.15154803330566   -1.92960907828734
O          -1.56471437669481    2.15223377269179    0.12958331552626
H          -1.69564515265200    3.00556070467427    0.54571742858761
H          -1.10261951149185    1.58069825729136    0.78111869486727
O          -1.56352046420621   -1.61220158225689    0.90248163730577
H          -2.00271719780455   -1.25253053851609    0.11074345236612
H          -0.80853197956506   -2.16448373447948    0.56229825314624
H          -0.86435225572835   -0.42631242557171    1.45447920678812
N           0.63240722639397   -2.79416403677839   -0.05567824057894
H           0.92979851400756   -1.98076666747616   -0.59341976872713
H           0.61727093085987   -3.58901496550967   -0.68245630162481
H           1.34996500272961   -2.96218580720444    0.63890090559655
