    26
        -50.44736364  Gyration_radius:  2.4662035698 Dipole_moment: 4.766
 S           0.44802543933241   -0.38987664125909    1.84936679070066
O          -0.30341303331857   -0.91186645725467    0.74448831844132
O           1.66109006792891   -1.06639890955063    2.16001224584542
O           0.72968518285002    1.11854422933802    1.56829052452258
O          -0.44398146938006   -0.31637476077062    3.10358460197134
H          -1.23220249774709    0.20415461751702    2.79214395006032
H           0.67673647485974    1.30803676931632    0.57719810103637
O           0.55586090326869    1.66752322897924   -0.92259320792712
H           1.22492235557122    2.30604225940939   -1.17449032082640
O          -2.15345146232562    1.36547920444932   -0.76661611762811
H          -1.19340765471709    1.49725877662325   -0.87823631054074
H          -2.59363670447282    2.07039540311417   -1.24467234816249
O          -1.47821751201632   -1.29422736606951   -1.65575537603177
H          -2.01797967053245   -0.49956579853252   -1.56636168751109
H          -1.12287016345255   -1.43128881268399   -0.76419429129944
O          -2.15169888149729    1.28209793357878    1.98225017536528
H          -2.25172401422783    1.11547295843426    1.02441882117021
H          -1.62615008158415    2.08256344572383    2.06131115361883
O           0.99742060199001   -0.42265156274558   -2.23291760435562
H           0.76308995579019    0.80039846574838   -1.47452574161160
H           1.55312005760570   -1.00360385921215   -1.64950109602393
H           0.10246499111563   -0.83100935178184   -2.21617320264751
N           2.36677752051028   -1.98925670291422   -0.52683053101416
H           1.98100846248864   -2.92120178759842   -0.62117842425391
H           2.13358455762247   -1.66869474997740    0.41094722960391
H           3.37494655431517   -2.07195051189223   -0.57996566246184
