    26
        -50.44599993  Gyration_radius:  2.48275694724 Dipole_moment: 3.201
 S           1.43156676372021    1.13282923935334    1.11408286491662
O           1.53817861025437    0.89511045421559   -0.30312926671145
O           2.53440028640168    1.73097435504914    1.76425484330133
O           0.13961579070474    1.97381526433387    1.35329323490721
O           1.10968022888851   -0.20373023486489    1.82677231021880
H           0.28204952656485   -0.62378746905069    1.43809545892542
H          -0.39346131522321    2.02966489761827    0.51662925737532
O          -1.02165462968618   -1.31537662945647    0.92250070111730
H          -1.15335841294964   -2.13423842445309    1.40401109446023
O          -0.17132358764967    0.45144379661463   -2.39084738337031
H           0.59631627442188    0.64762052563582   -1.83068331063446
H          -0.86720487708727    1.02590220526949   -2.05019424983309
O          -2.80845645440570    0.69088193983919    1.21111398288838
H          -2.27494730354154   -0.11966495179216    1.08555451878010
H          -2.50132427299696    1.08433553583063    2.03115574850944
O          -1.58591166813401    2.13364452160662   -0.60566570959708
H          -2.20635092141978    1.59957557963145   -0.04465030953314
H          -1.94992050891175    3.01882960917413   -0.66462379028410
O          -0.31197786469217   -2.01918669878122   -1.38203095201760
H          -0.35872723929013   -1.19483212112206   -1.91788945495405
H           0.65215667704073   -2.14499758750754   -1.20973744205324
H          -0.78614875690331   -1.60443230894009   -0.05236845936679
N           2.28744899265866   -1.87904776346460   -0.63672516300290
H           2.21582552614204   -0.86561606095017   -0.56240328347059
H           3.03352113548791   -2.08608557710400   -1.28905041680661
H           2.57000801061356   -2.22363210666934    0.27253519622623
