    26
        -50.45520047  Gyration_radius:  2.46574669226 Dipole_moment: 3.870
 S           1.51540621195049    1.00400647798711    0.37516133671154
O           1.21185734763661    0.69123961487719   -1.00873173898130
O           1.79627038813601    2.36214607492454    0.66576786708657
O           0.31046489067271    0.54083532172953    1.23815381630265
O           2.66522791589579    0.11616382435001    0.85158410405596
H           2.44001344793662   -0.87182388972726    0.67556994656218
H          -0.35808881192385   -0.05539956700388    0.74081818468955
O          -1.39409816371793   -0.95687770872357    0.08964931482744
H          -2.04715911398812   -0.28136225434716   -0.23480768874175
O          -0.10417040646118   -2.23432988225562    2.20765560093257
H           0.07564928617616   -1.42971397197057    2.70105246952794
H          -0.82486760779024   -2.01814342774189    1.59914783631227
O           1.91410687284313   -2.26290080535920    0.43127105036321
H           1.43071989322610   -2.27221578096299   -0.41265648649992
H           1.24519607956207   -2.42319418459119    1.13441430139537
O          -2.88300863026887    1.05946680425207   -0.66371451458407
H          -2.15215476287961    1.73475773317520   -0.71896600074507
H          -3.49643763092882    1.37769808596734    0.00020548298486
O           0.42982049170587   -1.65092005817968   -1.80883764670450
H           0.53943703824364   -1.79764727475406   -2.74926930208569
H           0.76620409225979   -0.74077874052533   -1.62099549816503
H          -0.95402249523613   -1.32001640077045   -0.69854990871753
N          -0.79248310295614    2.73340625406089   -0.68643686891794
H          -0.10115325642857    2.16074526932293   -1.16201615736868
H          -0.39609924286068    2.91458095519813    0.22967949699316
H          -0.83663072083771    3.62027755107012   -1.17514898722813
