    26
        -50.45520040  Gyration_radius:  2.46576469898 Dipole_moment: 3.878
 S          -0.34130867204960    1.80253829994080   -0.28388217077121
O          -1.04419773280034    1.12029998817351    0.78644635718193
O           0.28359167157131    3.02824678964282    0.05535087683719
O           0.72972848068182    0.82626048267086   -0.84136199903030
O          -1.29419667459594    2.00711635555551   -1.46191924580743
H          -1.71609932991823    1.10838622046883   -1.73049458167060
H           0.62379563081170   -0.14129807978135   -0.52097530272357
O           0.53591017557614   -1.60178293208733   -0.11034955410721
H           1.12993271921428   -1.60473722492551    0.68657285202695
O           0.19797953370457   -1.28432598203946   -2.86105800573101
H           0.46109673902264   -1.71692515897067   -2.03641010707508
H           0.73543299042673   -0.49055240420430   -2.92644871934217
O           2.11279263407408   -1.26584519407004    1.95166635347453
H           3.04972300130652   -1.32220935429758    1.75828589215325
H           1.91295249808585   -0.30074777795215    2.09941961286719
O          -2.16601198699705   -0.29441812975425   -2.04824735956865
H          -2.30342186018273   -0.77661935809757   -1.21490304697681
H          -1.40208367216737   -0.72497438000462   -2.49391466905754
O          -2.08407077650402   -1.24502748654513    0.53752414816859
H          -2.74399293073459   -1.45178216416942    1.20062024690869
H          -1.76961824781968   -0.32698402876581    0.72493078067613
H          -0.37235335859634   -1.71784699732903    0.21904048002245
N           1.49018676444935    1.33245814221554    2.13828120012430
H           1.81125524540019    1.89305310133846    1.35612389980642
H           1.68221417976003    1.85824698723044    2.98322913149952
H           0.48076300825803    1.28947028576986    2.03247293007545
