    26
        -50.45520035  Gyration_radius:  2.46574673003 Dipole_moment: 3.856
 S          -1.17283859224298   -1.41029846526817   -0.28284670646726
O          -1.60824622291838   -0.06598866619964   -0.61207651460522
O          -1.36507600190945   -2.39605902337352   -1.28248047796359
O           0.33639757694757   -1.34190108032420    0.07614268071251
O          -1.83678170492525   -1.84901377992728    1.02249667892157
H          -1.66112609271070   -1.14978158938986    1.75633738869832
H           0.69314135683238   -0.39155626538249    0.21382830681715
O           1.30728373380861    0.97907355988269    0.45033040251605
H           1.64529129019958    1.18712530384528   -0.46101889999650
O           1.40308957043130   -0.60030271980596    2.74709660458246
H           1.44575289393939   -1.43809312428242    2.27868152820366
H           1.68453917438947    0.07428572189183    2.11293342632681
O           2.03483691640242    1.23635287128498   -2.05056024161023
H           2.87562840789135    0.83121867346135   -2.26824978024995
H           1.33016925645987    0.65043557196832   -2.44215702669389
O          -1.23459769023695   -0.07954993211437    2.72709363938371
H          -0.28824448652919   -0.26033652723035    2.92530446354920
H          -1.25912407563126    0.78163892275110    2.27553980409132
O          -1.17840120420786    1.99178212865892    0.91061728239806
H           0.55197825004960    1.57130707662456    0.60958674203296
H          -1.75216315308639    2.73722068343548    0.72867902228093
H          -1.43646355922031    1.27341037984095    0.28284840285373
N           0.10943059020441   -0.42275611813977   -2.89518204916648
H           0.23109357017446   -1.38510156084773   -2.59817016449980
H          -0.17437335520890   -0.44240765040576   -3.86796507017118
H          -0.68119645887785   -0.08070438095335   -2.35680945194948
