    26
        -50.46018310  Gyration_radius:  2.46038756783 Dipole_moment: 4.617
 S          -0.33230669803497   -1.80270467060425    0.81050509253798
O          -1.44064150879697   -1.70589938500177   -0.14610171606392
O          -0.48266817833919   -2.78558509985044    1.82726381954347
O           0.93493362779591   -2.16333752444157   -0.06759491904637
O          -0.03862414241702   -0.45660441238436    1.35058672755107
H           0.97825053475651    0.68698364262757    0.97552354564319
H           0.75319851712185   -1.67042138727071   -0.88563993096703
O           1.57340402123315    1.43869777065843    0.70639105507638
H           1.70189213792028    1.96823617839452    1.49424000989798
O           1.00740550456056   -0.56179070404929   -2.26998887776819
H           1.17840840027409   -1.01438034462933   -3.09697596905108
H           1.89056472540689   -0.38861614916249   -1.84689720777734
O           3.11809627483748   -0.28530852774965   -0.73196536147181
H           2.95044824251379   -1.08912616530007   -0.22808406969728
H           2.76358717033813    0.44469161031628   -0.19071109663819
O          -2.07146590297006    0.77977639229298    2.41725006731299
H          -1.23676661194133    0.31533586500289    2.16707421014972
H          -2.55143379197495    0.16437281935459    2.97343023718335
O          -0.13662471260894    1.79428080042799   -1.39620301902724
H           0.18278775245659    1.02461996901969   -1.89599908421182
H          -1.48457676077711    1.25087455278525   -0.71908654457693
H           0.50383616340776    1.89070398201742   -0.66739697264711
N          -2.27576219305269    0.70605085404440   -0.26973415370335
H          -2.36727857804864    0.95651512389715    0.73716464897125
H          -1.97181722257229   -0.33590006426963   -0.27608653057230
H          -3.14684675108092    0.83853487387343   -0.77096397064535
