    26
        -50.44477120  Gyration_radius:  2.61793548108 Dipole_moment: 8.903
 S           1.61186499320488   -2.51362771936594    0.11437655922188
O           1.72680762586606   -1.51702825758795    1.14716867078649
O           2.05918571883534   -3.82381402451100    0.40950445381376
O           0.09098749191680   -2.55273581706199   -0.30452624615180
O           2.28024304129193   -2.00656537647453   -1.17489994377597
H           1.91762963430701   -1.07865945674078   -1.31497076297121
H          -0.44864302105988   -2.02437680201525    0.33775312673850
O          -1.47124845101900   -1.08395826372968    1.21686782873929
H          -1.92509909564266   -1.60631775893858    1.87973703541746
O          -1.54619022458340   -0.31826693568394   -1.41927333376185
H          -1.50239707498281   -1.17696214690080   -1.84723613135934
H          -1.67612327500285   -0.50510555423017   -0.47381648806236
O           1.14769359367000    0.27604571593175   -1.41619998129938
H           0.19048731637889    0.10478026687642   -1.50035794646004
H           1.23874650382745    0.87980420650134   -0.65776954525987
O           0.80584450405020    2.22750500470001    0.48933521491080
H          -0.04403804810101    2.44634905578926    0.01652996326430
H           1.32829708489043    3.02905882127421    0.52637061612480
O           0.29810341198654    0.33748959450292    2.41116657230529
H           0.98642776988929   -0.31225824622622    2.17700984820554
H           0.48732487095296    1.10750521964039    1.84707449894337
H          -0.83651101475276   -0.47567692854938    1.72226039759662
N          -1.45264300811923    2.65131911090266   -0.89219497181690
H          -1.36723334191379    3.27682954787302   -1.68364060825185
H          -2.26101179137571    2.93725476862498   -0.35415425761611
H          -1.63850521471533    1.72141197536517   -1.25611455931264
