    26
        -50.46376468  Gyration_radius:  2.54654135545 Dipole_moment: 3.184
 S           2.21911491107438   -0.50375176147973    0.29710342099517
O           1.61980191482187    0.46761649851549   -0.62392958668027
O           3.53471527454290   -0.92139911992439   -0.05708374466244
O           2.34817928503735    0.26021944829713    1.69988610711782
O           1.26357717084823   -1.57783676089289    0.56412564008503
H           0.15657761081736   -0.74810106715059    1.41494349607262
H           3.25968984576463    0.53107916922282    1.68967658924569
O          -0.51147635184379   -0.21903281763962    1.91219869318351
H          -0.33755495596546   -0.38840722736869    2.83910514070106
O          -2.05763172517098    2.58631286478524   -0.52490396986948
H          -1.17170547453463    2.55850089225538   -0.08206066883056
H          -2.50939006436811    3.35128068644498   -0.16803291580297
O           0.26818180878526   -3.01187582911353   -1.41640235052729
H           0.76896688083845   -2.60929097248381   -0.67267129915731
H          -0.25835082990944   -3.71510941067107   -1.03183940735926
O           0.19898119750472    2.22987585477333    0.80840116090961
H           0.83071520516450    1.77095898169820    0.22588738209261
H          -0.07881855151941    1.53810120327369    1.43025575253498
O          -2.44031121550196   -0.00828075402546   -0.04618175515592
H          -2.49768872676586    0.96193428805596   -0.19096615947255
H          -1.37239361130897   -0.31602284271989   -1.12603032496798
H          -1.93020714704957   -0.12400281069907    0.77297560615325
N          -0.54373903675913   -0.48203208901753   -1.79204516156432
H           0.32015168669679   -0.04150091709492   -1.36853001538708
H          -0.72770816830475   -0.08217878726903   -2.70582044936467
H          -0.35167693297477   -1.50705675038854   -1.84806118044010
