    26
        -50.45293930  Gyration_radius:  2.47533719503 Dipole_moment: 1.568
 S          -0.76842680834203    1.26168359185981    0.22483849217837
O          -0.88119735329930   -0.00699846849661    0.93097494411695
O          -0.48560266870534    2.37791892039020    1.09344429639794
O           0.28888266610609    1.13343784170615   -0.81986678780627
O          -2.08384278598954    1.55144559762666   -0.51384393808176
H          -2.26239334305102    0.77175437935432   -1.11670867237560
H           1.59162208092664    1.10290232844164   -0.30137508490718
O           2.48230050615358    0.96308196327640    0.27882256895308
H           2.40899455514702    1.69416453899619    1.00681887009448
O           0.00107232104812   -1.30876439066845   -1.93216820117963
H           0.23006484217190   -0.44170402093022   -1.54900508928046
H          -0.16488794617645   -1.92084010307247   -1.18710206351957
O          -2.43623758013936   -0.39687791104961   -2.17073735794421
H          -2.56790679613900   -0.01060952941228   -3.03877595629912
H          -1.54100881560476   -0.83809072848391   -2.19195435144521
O           1.90525656489183    2.72489168635225    1.99030095791115
H           0.93634740240909    2.63230887477033    1.78041516410288
H           2.12588754717380    3.64382545625533    1.82511953024542
O           1.45490503089928   -1.09491137399056    1.30822088386597
H           1.41136608117357   -1.87196509825087    0.74335378048514
H           2.25591533805713    0.07055398808912    0.74950608563600
H           0.54113735387707   -0.70603474534928    1.29331628204365
N          -0.90157588791654   -2.79773043168456    0.21337361776333
H          -0.62563711729363   -3.41641069282370    0.96707536493896
H          -1.72498010219648   -3.20209737377978   -0.21677819793414
H          -1.19005509517756   -1.91493429911908    0.63273483203356
