    26
        -50.46690601  Gyration_radius:  2.56758902372 Dipole_moment: 5.313
 S          -0.87653190142797   -0.68564643163539    0.29959209166973
O          -0.41955051905039    0.56465349583356   -0.33310034606494
O          -2.15684953835013   -0.32845424337464    1.10817180082103
O          -1.19207506113505   -1.69170261302714   -0.69091355667170
O           0.08436486938107   -1.14307582222645    1.29461758731198
O          -2.06723946565703   -0.03500428202086   -2.54592744103393
H          -1.43175192090762    0.66773067603665   -2.37878532919378
H          -1.73646747830215   -0.79330949728040   -2.01822383007828
O           1.41633979489730   -0.95667075003513   -1.48770404919795
H           0.86322446852379   -1.74203419271754   -1.42123938144613
H           0.83008403385601   -0.23688162168942   -1.19059367946971
O           0.57299068157846    2.47269755108591    1.14872989147640
H           0.16813519140972    1.84100464384356    0.50474881623784
H          -0.15562418418031    2.81643667842126    1.66814796241523
O           3.62976524684416   -0.55032766462877   -0.06046079561226
H           4.03711872203359   -1.41286713989495    0.03494056993674
H           2.88342924329267   -0.67412915832974   -0.69347511082580
O          -3.91946761447373    0.27495346837551   -0.70106761150412
H          -4.51390001983705   -0.47227988273026   -0.79677264373612
H          -2.86662273864383   -0.05495582950029    0.46059715145560
H          -3.32917873921401    0.25744080283241   -1.49860850778732
N           2.06207652111970    0.38857602153154    1.88478515652837
H           2.40634209567479    0.31552316962134    2.83545574927351
H           2.79918902779081    0.12345022075242    1.18275800423986
H           1.23738830857179   -0.28567323172655    1.71213323708876
H           1.67481098578157    1.34054563265322    1.68219426402644
