    26
        -50.44324619  Gyration_radius:  2.71527231989 Dipole_moment: 7.355
 S          -0.11333028528630    1.84325870434414    0.62339664530656
O           1.13516922000825    1.46832974870378    0.00496997289366
O          -1.23125049565622    1.96914029281557   -0.25183527715812
O          -0.42582039027849    0.78825532010580    1.73345067663708
O           0.07542798589422    3.10600730589573    1.45471827649419
H           1.01717411927555    3.00267693959397    1.87709651829819
H          -0.58916234462286   -0.12361669025701    1.35099714210391
O          -0.67208543807797   -1.60011660961183    0.73502001045401
H          -0.42620597561336   -2.20312749757006    1.43947285475213
O          -2.19076337912241   -0.29619497027904   -1.38984199161011
H          -2.00520589389982    0.63599717738025   -1.19789784899902
H          -2.02412745206895   -0.75358477192802   -0.55897880766238
O          -0.15720331765725   -1.43644358294721   -2.86097090188288
H          -0.89105823615579   -0.86799620686410   -2.56077145091908
H          -0.47523253972525   -2.33861163368980   -2.70512276289521
O          -1.70697618907086   -3.29887102891565   -1.45188661234600
H          -2.48641127903349   -2.81705129441140   -1.74084500172323
H          -1.41207315184562   -2.86704249102131   -0.63985994919859
O           1.34283332028042   -1.12713960088188   -0.71613535559196
H           0.95123617819101   -1.23592904591344   -1.62251216028512
H           1.42823953394782   -0.16765269250574   -0.57768172693901
H           0.17033957980615   -1.48752601899989    0.14618946675930
N           2.44215083159086    2.56193636117753    2.22648821901885
H           2.53957782940960    1.98740539188233    3.05268481609006
H           3.15909864686798    3.27499347907990    2.23236218988949
H           2.54565911283375    1.98290341482469    1.39749305851572
