    26
        -50.46690601  Gyration_radius:  2.56780301758 Dipole_moment: 5.311
 S           0.10203163083124    1.09974621896427   -0.33062192987032
O          -1.06114303514382    0.75599570221674   -1.13757496599726
O          -0.19516209807578    2.04912490860494    0.71976643454815
O           0.74191675890319   -0.11338921244500    0.20894907517339
O           1.11653843604649    1.72628725888793   -1.32991809736368
O          -1.40290619172899   -0.28324764291474    1.75463028472612
H          -0.54584613769539   -0.39734811191249    1.30464400558940
H          -1.55897870999981    0.66580820349128    1.70833638865537
O          -2.93916490431708   -2.12163767432682    0.58784564599099
H          -3.83474863641498   -1.78459724290449    0.64586977078069
H          -2.38617187765660   -1.51025263876746    1.12944456324961
O           1.87499055922703    1.47756335159154    2.24901868556497
H           1.87731023642106    0.52917850587824    2.08712554464926
H           1.03162680456386    1.78966313415811    1.85612678991711
O           1.08816316908909   -2.18593635079611   -1.34201441060036
H           1.05379744087083   -1.44578493897303   -0.68712715947195
H           1.74962538388189   -1.93100120074322   -1.98725083670247
O           3.08754611108530    2.52505738825687    0.16030465536243
H           1.91749381882679    2.02530605381199   -0.81301441676823
H           3.01482864757335    3.47638091357106    0.26325815974400
H           2.79212853743336    2.13428137323294    1.02338994366336
N          -1.51947076619341   -1.72327044640960   -1.63708367053357
H          -1.36605145719526   -0.66439718304352   -1.49648585322651
H          -2.10285688736852   -2.03849315877504   -0.82064373598991
H          -1.97673144770850   -1.91604081915611   -2.52104499566257
H          -0.55876539501924   -2.13899638170193   -1.59592988557560
