    26
        -50.44029664  Gyration_radius:  2.68647503226 Dipole_moment: 3.966
 S           1.58663876575356    0.28064855741029   -0.54072885607912
O           1.97016279298024   -0.98350507802447    0.02366321692225
O           2.60580145017937    1.25256007870877   -0.72406919845634
O           0.87171503643241   -0.00188885905345   -1.91589201690102
O           0.41707011956041    0.86328342140010    0.27297205795241
H          -0.13442524992693    0.03926120096831    0.55445505226700
H           1.61965620467799   -0.37441917688131   -2.47984986270214
O          -0.56525123020228   -1.37185130958055    0.92307948704983
H           0.33919669470063   -1.71338155964311    0.87880566201251
O          -2.95044140727569    1.43967024929876    0.25078766531939
H          -2.62484699088804    0.74391398637873   -0.35772936606821
H          -3.16015819273065    2.19784276053310   -0.29567072832921
O          -1.88688988790684   -0.46815355633121   -1.37088295611514
H          -1.68020314025268   -1.10918161391558   -0.67877112874384
H          -1.03691100250831   -0.20852772642623   -1.74816574286842
O          -1.27490249400927    1.80595120842227    2.35577110439424
H          -1.97200790922755    1.71361682230046    1.67418107025129
H          -0.45842008986844    1.91920696974014    1.86039481405120
O          -1.21601935566843   -0.65255983535466    3.33942662544205
H          -1.20974525368829    0.31177678916608    3.10967528568949
H          -2.11263644172275   -0.84916737772465    3.61613223420486
H          -0.79890053303390   -1.23912603108116    1.88532165452535
N           3.16068583537323   -0.85520616095704   -2.71521414969629
H           3.62903879586838    0.00290213985490   -2.44598120748229
H           3.62079481136544   -1.24171732538653   -3.53061773421165
H           3.26099867178435   -1.50194856391647   -1.94109298228759
