    26
        -50.44727625  Gyration_radius:  2.46744232571 Dipole_moment: 3.883
 S          -1.57782622838800    0.31527061537307   -1.64478256584878
O          -1.00971546135458    1.58783854226164   -1.98898209808371
O          -2.46221187977879   -0.31309903954015   -2.55199718997984
O          -0.39118786125359   -0.66187044742755   -1.33658901917400
O          -2.29215161713387    0.41986427175800   -0.27433350145469
H          -1.67812444224709    0.84946339467084    0.40085297890853
H           0.49544909598482   -0.17664277645613   -1.35449857361025
O          -0.71032426324240    1.34426576699263    1.51013529452432
H          -1.20400891813630    1.70770869235745    2.24759595411393
O           0.79017341455398    2.70992863314883   -0.35838208196246
H           0.07768530094099    2.61112044911721   -1.01691850803749
H           0.40092754567484    2.40416976133315    0.47547967006579
O          -1.70172138276257   -2.28438259848092    0.48744219661142
H          -2.58657435960459   -1.91382519629867    0.44668502468530
H          -1.23939801010803   -1.94291368867406   -0.28979335289208
O           1.84650084070338    0.59037314499269   -1.39760154027158
H           2.00927340318316    0.82466379202951   -2.31390096032557
H           1.58306832160948    1.44702283282230   -0.94213011493646
O           0.00207097534271   -0.98937785754947    2.19253884489659
H          -0.36775806287200    0.42760771086586    1.82670415812493
H          -0.64241193426173   -1.56365178025182    1.73485590560496
H           0.86958986983686   -1.18037800735763    1.75580031101534
N           2.24399366408566   -1.50122118821174    0.77195998986517
H           2.30777851983348   -0.78497666139297    0.05637535825425
H           2.10636008886304   -2.38878088423287    0.30481238258498
H           3.13054338053575   -1.53817746187335    1.25867144734913
