    26
        -50.43992346  Gyration_radius:  2.56278772621 Dipole_moment: 5.141
 S          -1.56370013981798    0.49203367486821    2.14727628883787
O          -1.18170670233106   -0.89556318142760    2.11232803286837
O          -2.28557168258388    0.94743147953518    3.27465053345791
O          -0.26005359132734    1.32483814060919    1.95984490228250
O          -2.36954442792896    0.84180525314565    0.86650206926207
H          -1.77011733214940    0.89954427583383    0.07741708314035
H           0.47419611899531    0.66800509632716    1.70888039215065
O           1.65889569430096   -0.21741000658953    1.30611489762082
H           1.84510747595953   -0.75004402987430    2.08111557084629
O          -1.46919333923609   -2.31958893643886   -0.09337305013379
H          -1.79158487882189   -3.18565383455657    0.16066255276106
H          -1.43835245247038   -1.79139661722425    0.73183519541389
O           1.50054797178049    2.19433719587593   -0.09480892926598
H           1.91207346880518    1.37018382410400    0.20204676228803
H           1.19351569468583    2.62757471039014    0.70747242598319
O          -0.79970385036495    1.38358338328957   -1.15518444566960
H           0.07299036758935    1.68338458552007   -0.79167557255134
H          -1.23748298581969    2.16690226961659   -1.49458424370959
O           1.16470845729816   -1.91157245354044   -0.52872416833442
H           1.45134884232874   -0.89697801378784    0.56571573747946
H           0.22188345637766   -2.15381279570464   -0.42000066181188
H           1.20232458341564   -1.43271018043608   -1.38883739928474
N           0.95525408069461   -0.43237512158667   -2.79582755013380
H           0.15021985659624    0.08998559718028   -2.46405433210122
H           0.68408793901424   -0.93186238226426   -3.63251975945714
H           1.67985737509736    0.22935807716089   -3.04227234199616
