    26
        -50.44438648  Gyration_radius:  2.51382602928 Dipole_moment: 5.862
 S          -2.43300272720230   -0.71957563108913    0.28573369842310
O          -1.52863128442154   -1.28349380711370    1.24696099029473
O          -3.76898369867436   -0.48467130579459    0.69268744312293
O          -1.78747448636790    0.62501346646314   -0.23129917538874
O          -2.41656216966953   -1.55677129297334   -1.00933420856803
H          -1.45676325700344   -1.69552936145173   -1.24824823883631
H          -1.22251101183644    1.03337098922277    0.49278009292124
O          -0.26717633244447    1.69024518671292    1.55698263204795
H          -0.77220291609305    2.14006874596891    2.23604189696044
O           1.62843141518464    2.01876953204032   -0.41586856843020
H           1.91091049326254    2.93238024251977   -0.47816972590572
H           1.00033662555904    1.96733902635924    0.32682642768083
O           0.04765898438090   -1.71505172508640   -1.80952332435494
H           0.03562863694144   -2.21936915951098   -2.62550762348797
H           0.12538855582085   -0.75341352446529   -2.07297483737502
O           0.04362233392532    0.84650225865183   -2.31233040300597
H           0.71979948301267    1.27424602118780   -1.75322120442900
H          -0.79235832538225    0.98982018829110   -1.84740153728443
O           0.67507327531481   -0.44499153947956    2.52638062860781
H           0.15182978907542    0.85974352817499    2.01016211073054
H          -0.11447279718307   -0.96652816437936    2.30331480820459
H           1.33142357483658   -0.68504633397672    1.81944830627437
N           2.13053157903293   -0.94052147656056    0.33055659407710
H           1.46537610750799   -1.43243251430555   -0.25677966707469
H           3.00305634219345   -1.45181013669636    0.31468604484954
H           2.29107181019431   -0.02829323271908   -0.08190317008253
