    26
        -50.46044993  Gyration_radius:  2.45561922568 Dipole_moment: 6.763
 S           0.97017208420597   -0.02393087256907    1.22446265276138
O           0.73785579042673    1.09308765020449    0.30843511123919
O           0.16879965131605    0.04395617868635    2.41221559532243
O           0.58352998395307   -1.32776549219061    0.41642360762461
O           2.40166307841035   -0.21731470176302    1.46811210091135
H           2.84302960151321   -0.69348098038865    0.22091731681341
H          -0.15882483529017   -1.15193218934282   -0.22364014983842
O          -1.18572830711356   -0.95597856841376   -1.45116408880759
H          -1.67984177847234   -1.76829309820229   -1.57348377636802
O          -2.36515300365626   -0.62514150265967    2.08907210217117
H          -2.81408578804813   -0.25911526911483    2.85310324669907
H          -1.41335774595204   -0.42013769653101    2.22438342322999
O           1.22670985629910    0.27027003234752   -2.09678158629835
H           0.39973747019605   -0.21285902282432   -2.24299327093338
H           1.04802596075203    0.77578653119680   -1.26567904751565
O          -1.36250123056783    2.72068875263588    0.37155852639247
H          -0.56781061065576    2.15683616343613    0.47134322437962
H          -1.11810337714723    3.41717064107541   -0.23965421817520
O          -2.85861210211704    0.56928410515432   -0.26925042481855
H          -2.83434748838087    0.10833690946132    0.59655100808102
H          -2.44457571204623    1.43831576009241   -0.09298593626920
H          -1.85513020527400   -0.29774618280577   -1.05634020300755
N           3.05299056218132   -1.08353160267741   -0.80820074733060
H           4.01130082176750   -0.89331599813454   -1.08377909785755
H           2.34839657323311   -0.58147985611539   -1.45097323968110
H           2.86586076047235   -2.08170969055637   -0.80165210872302
