    26
        -50.46215075  Gyration_radius:  2.51020477166 Dipole_moment: 3.336
 S           0.64638817186023   -1.71283056542969    1.11915331110070
O           0.87396880844949   -1.57383328817249   -0.31633330136624
O           1.47504575733729   -0.81633652387885    1.89617428907136
O          -0.76471562384698   -1.63568691240169    1.45104477610284
O           1.11568514363158   -3.17845759167765    1.49759291636946
H           0.50095418540120   -3.75336144196365    1.05033861679407
H          -0.79221222242200    0.04282972353733    1.63067657884595
O          -0.81652214711978    1.01793322058395    1.70168993846232
H          -0.38781347679821    1.21709861938617    2.53631274901302
O          -0.48963560578132    1.76739103687909   -2.47981695242100
H          -1.26979530506248    2.15590818575105   -2.87653000871314
H          -0.69442115284479    0.80182194499157   -2.36393496059851
O          -1.10690144357145   -0.73939884542331   -1.98796920622672
H          -1.87692671914431   -0.71138457497367   -1.38641723484386
H          -0.38911362853989   -1.13550099293816   -1.46609530052039
O          -2.87884988745322   -0.58272396477956    0.07522235078484
H          -2.28609841229066   -1.13849618297490    0.60734041029060
H          -2.82703772085071    0.29028641365556    0.47391404057974
O           0.54883106442716    2.45568412051166   -0.15658467762852
H          -0.06006445857540    2.05130056167090    0.49415164357602
H           1.64898489077982    1.46391439173489   -0.17174654126314
H           0.13125000211218    2.32233898678856   -1.04220337823946
N           2.31255064379140    0.58912780537633   -0.10943837031055
H           2.24322925060465    0.20705794426866    0.86571514280749
H           3.26361659014492    0.78605680038957   -0.39976966140215
H           1.87960331575829   -0.19073888092295   -0.64248716023736
