    26
        -50.44073511  Gyration_radius:  2.44981830504 Dipole_moment: 6.025
 S          -1.10246235668486   -1.70011839725734    0.15968842136080
O           0.13693754864229   -2.41381571548697    0.17371997885060
O          -1.91053565607122   -1.76650288951527    1.32980853105834
O          -0.82757769779915   -0.19896453596798   -0.19094591417057
O          -1.91273969205295   -2.11417871003879   -1.09114237817785
H          -1.29684376485286   -1.87048547943828   -1.83770730964276
H          -0.95314503342929    0.45151127177494    0.55208861181310
O           1.47490502282309    0.61652355260531   -1.62545999731601
H           2.31260360557816    0.71827701623671   -2.08197274366858
O          -1.13541262606686    1.84323205181467    1.39002201777869
H          -2.03443217321922    2.16945125824187    1.31641194259594
H          -0.59280335410580    2.33611544653457    0.72828186581428
O          -0.25162474089928   -1.12908311398222   -2.83286779477830
H           0.35919084379063   -0.55196091429858   -2.32213979539221
H          -0.75496396507692   -0.54614819356564   -3.40541734215024
O           0.17129246053065    2.81465398407201   -0.71360787389544
H          -0.40715113567916    3.03331986544875   -1.44586662203474
H           0.67515279353643    2.02099864903648   -0.99594567435231
O           2.10406485490206   -0.65650145681334    0.52751135143452
H           1.70185813572388    0.15297522414800   -0.75752120688204
H           1.68184080514006   -0.34719763490813    1.35857093777226
H           1.61291699061739   -1.47498213621748    0.33737406692170
N           0.44647134877717   -0.34431896823784    2.67568350219543
H          -0.01554018408854    0.55692096007950    2.71955361540951
H           0.77506382362236   -0.56788590026177    3.60705404810592
H          -0.25706586363235   -1.03183523400366    2.42482576128547
