    26
        -50.45151228  Gyration_radius:  2.46987077695 Dipole_moment: 3.923
 S          -1.35318002149869   -0.71945135834628    0.57298363676125
O          -0.92543007069294    0.37986314092755    1.39964126671150
O          -1.11346148593681   -2.01770020152566    1.12011480372418
O          -2.82394419709317   -0.59081542077617    0.19866190818577
O          -0.64617453998448   -0.60038464920456   -0.80470841468240
H           0.22463706483301   -0.03335587428482   -0.78080936755551
H          -2.89806529872382    0.19512907595203   -0.45650197602861
O           1.51337094184191    0.69806228189125   -0.74534225865738
H           2.15856214069403   -0.02011077179395   -0.82607884244808
O           0.77218515607040   -3.14783656634512   -0.36113327127123
H           0.42539725030797   -2.92854954019646   -1.22866223372463
H           0.06777827007305   -2.89861469153181    0.27022904040511
O           2.72010070365793   -1.48723426695421    0.39382076774564
H           3.50857476881622   -1.99389974563832    0.59179759477788
H           2.03205142922095   -2.14583837621100    0.14269663735740
O          -2.75960310333638    1.29102503921056   -1.48434987604690
H          -2.31931716152755    0.87572113621154   -2.22990546119125
H          -2.08485806960718    1.92326404780917   -1.07757200751602
O           1.69629861543292    0.77660698158235    1.85795800345756
H           0.74145151713044    0.63080149665354    1.97389146763307
H           2.10590339383335   -0.09728754369366    1.80330814336517
H           1.60498094666943    0.95435621861148    0.21388833327841
N          -0.86429705138607    2.66981164635552   -0.30466320020073
H           0.03486664778038    2.60204283061621   -0.76630209420456
H          -0.83405608997081    2.06217859906027    0.51249713477880
H          -0.98377177644625    3.62221652102338    0.01454029515883
