    26
        -50.44828883  Gyration_radius:  2.56665205872 Dipole_moment: 6.195
 S           0.83142586107571    1.24456834799183    1.43855410647979
O          -0.49699819850131    1.57603640322292    0.97029019823725
O           1.42249336227923    2.10816560075719    2.38566824520557
O           0.78517482596447   -0.19538136702083    2.00363416933858
O           1.75776380217052    1.12410659241145    0.20213668749638
H           1.28468590209045    0.66313395970777   -0.55225202292632
H           0.25417368102445   -0.77592472633635    1.36473414802764
O           0.60640525443108   -0.15948744008274   -1.71881378864003
H           1.15817640615041   -0.13083763086465   -2.50195686921138
O          -0.91915475714203    3.25935590489573   -1.06998530896336
H          -1.53639039274753    3.93792417050952   -0.79206927627716
H          -0.71662158996106    2.73139695235970   -0.27357474254912
O          -0.31527981776798   -1.74109886542359    0.28859157833931
H          -0.01165529579291   -1.34797829968441   -0.54902020464051
H           0.31746253793364   -2.46845104670641    0.50079558952799
O          -2.55626781868988    0.02659069055442    0.06459145848241
H          -1.96964541373268    0.64964162463069    0.52468446785254
H          -2.16147206166752   -0.84111245727959    0.20354160608397
O          -1.60772795658701    0.94213140367810   -2.27621231279628
H          -2.15788607029840    0.58823851711752   -1.54193649873617
H          -1.42996335930835    1.87306346926404   -2.03354875119975
H          -0.28363717584050    0.28861327434225   -1.98606138859176
N           1.72264926017355   -3.25790503577317    1.18784390924668
H           1.98144686624685   -2.55055910139569    1.86733086047891
H           2.52810172017102   -3.43436317286007    0.60020792442483
H           1.51274040813944   -4.10986779780275    1.69282620522691
