    26
        -50.45018991  Gyration_radius:  2.49742514136 Dipole_moment: 5.276
 S          -1.65400217509335   -1.75295538000916    0.19690177689341
O          -2.36121603359846   -0.51014709249886   -0.01675398334014
O          -2.36303956275698   -2.95274906969489   -0.04129964559434
O          -0.35506715651486   -1.68974762153538   -0.66976078007037
O          -1.07467649492845   -1.78221350328023    1.62497991344943
H          -0.61700051930684   -0.91569359929936    1.84549106742208
H          -0.54423467537489   -1.01839518139237   -1.41222496877056
O           0.15639891356590    0.39039938476067    2.26628777551783
H           0.58042405405593    0.24437610685910    3.11346734900141
O          -1.04872415017094    0.11811055913148   -2.29583726973632
H          -0.54775381424587    0.90890535615011   -1.99785693013987
H          -1.89842414976868    0.15621434777570   -1.83386716037501
O          -1.63708409418090    1.93012454170291    0.83030397341775
H          -1.10323764875303    1.65001358026701    1.58691415933930
H          -2.08841586564716    1.11539365322222    0.53859033712255
O           0.11561683207309    2.22185046349483   -1.08217772046915
H           0.12144153836530    3.11875043216898   -1.41848060045255
H          -0.56234409261474    2.19891940761528   -0.34621876752266
O           1.97331447645383    0.95766903584994    0.54983285058733
H           2.27420487069576    0.12005965771168    0.11853386881157
H           1.47784197735096    1.44694047264581   -0.12728045512125
H           0.90173690656996    0.60452636737710    1.60867365418742
N           2.57202610966143   -1.39464472616205   -0.63887503604819
H           1.62388791826599   -1.75903083919470   -0.66800882003483
H           3.14722876679780   -2.06137244179772   -0.13993756501382
H           2.91109804914123   -1.34530394190963   -1.59139701301535
