    26
        -50.45524960  Gyration_radius:  2.46744166089 Dipole_moment: 4.693
 S           1.51982236122061    1.22925569188493   -0.11279233344005
O           1.94030952659217    1.69602918905153   -1.40376618916852
O           0.16315268997260    1.61946522188631    0.24175236328088
O           1.73994130818810   -0.19403244694097    0.12499791719330
O           2.47003918871941    1.94373501395941    0.95625970768124
H           2.65114101579386    2.77662344837792    0.53319585532595
H           0.86666361885409   -1.25763751293184   -0.71048883361527
O           0.27623622915181   -1.85399095181439   -1.23291784623166
H           0.79604668561804   -2.62674903883106   -1.45776168705680
O          -2.69056860081446    0.64972843644827   -1.61502684570610
H          -3.23438695596300    0.58613521507832   -2.40114853659120
H          -1.77044032014202    0.79609530591506   -1.93401129704374
O          -0.20851444212551    0.56915976747458   -2.59617733212289
H          -0.02596774167295   -0.35112795140137   -2.36083730131705
H           0.54149708587066    1.08853865075270   -2.26223021827745
O          -1.20906112358820    0.21258863386320    1.78580583445523
H          -0.72827178699005    0.88273048351197    1.16828901615688
H          -0.40734523653730   -0.26545792279376    2.26866163488513
O          -2.09395970366450   -1.32446892946330    0.02656267260459
H          -2.46751371441285   -0.63449307185236   -0.57741122039572
H          -1.29480516275089   -1.64764198328694   -0.42930845731463
H          -1.64465553606192   -0.47630235760872    1.10517304369392
N           0.94285772371605   -0.79101196321614    2.70282161601508
H           1.43130043537359   -0.62560417233836    1.81547798630865
H           1.03905711100291   -1.76722321369497    2.95017885817071
H           1.39742531464853   -0.23434354204599    3.41470160250383
