    26
        -50.44477107  Gyration_radius:  2.61790609318 Dipole_moment: 8.920
 S          -1.19060753501319   -0.15213004002871   -2.73793289739984
O           0.09968736969773    0.45140429784152   -2.52824437031556
O          -1.51977249538889   -0.56543569245536   -4.05117302300025
O          -1.27441459550898   -1.38456011911047   -1.75602584571528
O          -2.29192685180398    0.76756786530217   -2.18371929013301
H          -1.98928317203644    1.01897471901182   -1.25770523411752
H          -0.38403303854054   -1.55607193830079   -1.35519416458403
O           0.97580125455983   -1.89674620456400   -0.49623442156372
H           1.46489049600615   -2.61019255109734   -0.90859736720063
O           1.12766527056118    1.91696574618830    0.95224536120002
H           1.36286142311668    2.80258413912244    1.23007146390652
H           0.96388532761370    1.37890176047936    1.77541973888116
O          -1.09162958138242   -1.34887858560075    1.22615508788511
H          -1.81596287220998   -1.78367910064734    0.76930747747206
H          -0.28557400930845   -1.62248154734680    0.75597206494065
O          -1.40681598078806    1.18456580885154    0.18133439933086
H          -0.51064816783399    1.56043290530196    0.24171580881452
H          -1.35446168617949    0.31292707679034    0.61737446510004
O           2.23824309118181    0.28823954025823   -0.95414801739844
H           1.63930234009436    0.48480451608327   -1.69806197138518
H           1.98558056033890    0.92482867154055   -0.26276981448073
H           1.53538941523095   -1.06055962906490   -0.62280035278023
N           0.52264965350527    0.40139472678136    3.07918684984427
H           0.04778774138943    0.87705922341122    3.83635650972232
H           1.28583944556429   -0.13255349890707    3.47579082295956
H          -0.13445340288417   -0.25736208980147    2.67167671006072
