    26
        -50.45646036  Gyration_radius:  2.53590249279 Dipole_moment: 2.915
 S           1.89409766359382   -0.54052213062189    0.74726195551095
O           1.26925121253316    0.78364309682543    0.63722141992890
O           3.12903307737089   -0.62764441063851    0.00926065165159
O           2.25072113208187   -0.71499173182708    2.28415139590789
O           0.94765884230740   -1.59160856261178    0.43503857896400
H          -0.57803941729630   -1.43490033865928    0.85281582855595
H           3.03074928038597   -0.17996242305152    2.39690487878957
O          -1.54253633177721   -1.31050106954746    1.05263400300765
H          -1.88019596263789   -2.17699844665908    1.28270556610932
O          -0.98153301073807    1.22311295284579    2.07020835010436
H          -1.31859304225867    0.31991315685745    1.97952715166404
H          -0.10204248094102    1.19911703198777    1.65223236190254
O           0.26973395423893    0.88192143383240   -1.69142263842867
H           0.66091025983149    1.00063190611381   -0.76481755548111
H           0.82915159547528    0.02137445161426   -2.06943971968974
O          -2.61810446019152    2.35696315062831    0.30432666578250
H          -3.43679776441342    2.57189565229675    0.75191375536102
H          -1.98195604048892    2.07726368696810    1.00748748110978
O          -2.07940655626301    0.20164021090520   -1.14401297622306
H          -0.73756709339729    0.59606126495770   -1.53401952801597
H          -1.97286760846647   -0.41651837945228   -0.39288812925441
H          -2.40821088283412    1.03860954723486   -0.73797202181336
N           1.67383724847634   -1.11225369383482   -2.29543685412419
H           1.17200877043061   -1.96299090525449   -2.07201336798827
H           2.38557897318588   -0.98869309002758   -1.56600360566719
H           2.12511862174310   -1.21456236088537   -3.19566365765946
