    26
        -50.45650702  Gyration_radius:  2.43162732637 Dipole_moment: 7.710
 S           1.32028042921185   -1.02533035366735    1.18398377294459
O           0.45643495772035    0.11487375613821    1.50835934271881
O           0.96119504206678   -2.23080438492598    1.86348214966363
O           1.10480691898699   -1.26205156804622   -0.38052771435659
O           2.72999687058822   -0.63329422860677    1.24517966553863
H           2.86901993321601    0.20849844669549    0.11316047327570
H           0.23374571283236   -1.72545699602121   -0.40329157845660
O          -1.20576245099323   -2.33955188908560    0.14945284162566
H          -0.69478959441371   -2.76707611494311    0.85180484098179
O          -2.41490296044881    2.00993793848033   -0.17957024958073
H          -1.45804557553205    2.11571750334861   -0.32255165638483
H          -2.73006323840699    2.81459089203851    0.23342533100322
O           0.29792490678120    1.49282264414390   -0.65410201104759
H           0.31510658859991    1.04456069649472    0.23617403236244
H          -0.17833023736584    0.85493597910406   -1.23409391437102
O          -1.43358866082717   -0.19696729530164   -1.85120204313185
H          -1.48411673585857   -1.06260028031954   -1.42781735366073
H          -2.20350190962746    0.29972747447108   -1.55241721760081
O          -2.19475188481687   -0.26164671385516    1.44888178481770
H          -1.27034857175026   -0.09111805149909    1.71213485024916
H          -2.45475766458558    0.50587738734499    0.91466830993608
H          -1.73614973866390   -1.65364306696392    0.62963529732498
N           2.83275587739666    0.82379380177630   -0.81951180443023
H           1.83084308421820    1.20640007624880   -0.85768638376989
H           2.97994370680138    0.19380002412537   -1.60288891388091
H           3.52705518481926    1.56400431281770   -0.80468187191380
