    26
        -50.44477103  Gyration_radius:  2.61764158609 Dipole_moment: 8.916
 S          -0.26415863634787   -1.60937202145130   -2.50451167108269
O           1.03165308298876   -1.31571866104844   -1.94981027525549
O          -0.36119524159709   -2.68428909444358   -3.42038396958887
O          -1.22846529277609   -1.86411684210406   -1.28166183103573
O          -0.86735271912718   -0.33593735439695   -3.12120711506199
H          -0.75963711855886    0.37749541340786   -2.41987947449819
H          -0.70045026011264   -1.92860872973513   -0.44512485314335
O          -0.00392438017922   -1.92544734834954    1.04437924496244
H           0.15922944434024   -2.82159631526393    1.34189743485490
O           1.60454031237094    1.76944949865821    0.38626002406447
H           0.96626421073110    1.94036176244324    1.13278793301577
H           2.15633254756235    2.54681536142037    0.29649310888610
O          -0.61309578023001    1.29612676146065   -1.16633989225842
H          -1.12965182650059    0.92586294164623   -0.42558785042414
H           0.29026962566994    1.41209391509819   -0.82184580949022
O          -1.91728544779821    0.04026337342202    0.91479520234247
H          -2.59491862760919   -0.41271612778934    0.40681159995519
H          -1.25905631437623   -0.64051915617079    1.13597437285793
O           2.24905872900153   -0.89665855687139    0.37818993137190
H           0.90679799054005   -1.51725851804402    0.86447216022675
H           2.07035944185566   -1.09843110580195   -0.55891163561731
H           2.16157927215014    0.07051797762166    0.44031536901424
N          -0.25607923724519    2.15906903683012    2.27664304242952
H          -0.01086794953118    1.85380323772509    3.21015831795072
H          -1.00505353894466    1.55918614129541    1.94360420473418
H          -0.62489227627855    3.09962442043866    2.34248243079307
