    26
        -50.47104613  Gyration_radius:  2.54693971802 Dipole_moment: 4.090
 S          -0.88434608261764   -0.01790522205542    0.65642298513033
O          -0.45210549641317   -0.60331511600438   -0.62803021195136
O          -2.21769476956301   -0.70127249610339    1.04072518610467
O           0.08338883996986   -0.28645508517831    1.69849714396099
O          -1.12089612038855    1.41541763075989    0.49763216851639
O          -2.95187581797789    1.98160840568072   -1.32823173331181
H          -2.23030941327380    1.86776509396592   -0.67195415966513
H          -3.61800394745936    2.52071694693951   -0.89833783043284
O           1.01548608802307   -2.58478907202687    0.79891846127323
H           0.67828070116800   -1.81149476962243    1.30043330934686
H           0.46494500023315   -2.61263070535273    0.01108942572156
O           1.31998770563258    2.13396869661806    1.17367672648219
H           1.36514171625505    1.56353670500108    1.94908302504506
H           0.36701861864087    2.11197449592627    0.93688997005832
O           3.36038097164560   -1.57348496901300    0.17598944186343
H           3.84061857389794   -1.47532289679945    0.99976188277344
H           2.54444206575531   -2.09628788672670    0.39967580207002
O          -3.07171477245874   -0.69511846687375   -1.37974752092275
H          -3.21480011481071    0.26449747510677   -1.52769802625934
H          -2.14001159191405   -0.84412311008960   -1.59359047018328
H          -2.73093280212215   -0.77009855149672    0.18052930133094
N           1.93832963907800    0.45340351486308   -0.78000661282835
H           2.22147115104220    0.84116787147343   -1.67385838176601
H           0.97951481887105    0.00007570020997   -0.84845473454385
H           2.61488833209292   -0.29049239895826   -0.44894560913929
H           1.83879673671333    1.20865820977160   -0.04046953870013
