    26
        -50.44627732  Gyration_radius:  2.47539075861 Dipole_moment: 6.964
 S          -0.42285271159372    1.92546524462964   -1.43775014357809
O          -0.67200394011171    1.63750421621700   -0.04039305177574
O          -0.17870859579202    3.28547835091971   -1.75530237933995
O           0.79756349461894    1.03436984398425   -1.87576230523906
O          -1.53224980186476    1.33713409949187   -2.29700930262344
H          -1.54985605650550    0.33498045668561   -2.04051591850197
H           1.48805777966895    0.99306461686700   -1.16873528752249
O           2.57187558926230    0.64101134389464    0.01032996618614
H           3.27928684766623    1.28647922584439    0.04438660380159
O           1.20082688609001   -1.71091812214244   -0.63076907050644
H           1.78164573779934   -0.94905977265294   -0.47689742748732
H           1.53137145283868   -2.15482339750429   -1.41378522807064
O           0.18844387423613   -1.74291044621761    1.97587057169763
H           0.70283964601316   -2.37793044131261    2.47678296889794
H           0.43022077461024   -1.85922848414728    1.04326300549459
O          -1.44246248842375   -1.04404397554643   -1.49171268557221
H          -0.51556029657012   -1.21685099386153   -1.26405494537878
H          -1.91404243177231   -0.95394889723264   -0.61422072737895
O           0.93441752401238    0.92267599975155    1.96461980212845
H           0.60975034084807    0.02118883310553    2.14130985192905
H           2.01852367648231    0.77334745343149    0.84787514234690
H           0.26388189378916    1.32598586706760    1.37993656752504
N          -2.38578227082071   -0.50693967915546    0.92087376838024
H          -3.33968356217310   -0.43875676507139    1.24835909110768
H          -2.00643136312334    0.43237868664721    0.83295634748570
H          -1.83907200917947   -0.99565328368882    1.62034477599357
