    26
        -50.44647007  Gyration_radius:  2.4829409695 Dipole_moment: 5.859
 S          -1.13247086983139    1.99522343123970    0.62151594861269
O          -1.23273392226308    1.50814121686357   -0.73210799531933
O          -1.51189806080547    3.33262000276918    0.88143941162754
O          -1.89362811038535    1.02983018892878    1.55295843975161
O           0.35246331584798    1.78219012664089    1.08715594388099
H           0.92529743468585    1.41446729063057    0.35425706217905
H          -1.90756033958254    0.14281880560089    1.05919158359182
O           1.91587100661856    0.81349222793671   -0.73999770154856
H           2.65458196875896    1.40568435231757   -0.88839834087800
O           0.89492795708506   -1.58819995365219    0.24597632813821
H           0.84214329913141   -1.45115170311426    1.22391324238703
H           1.41019981821541   -0.83426116340060   -0.07727428010560
O          -0.14184033262884   -1.91204715002643   -2.33533219858798
H           0.08252244872073   -2.68950676804860   -2.84737093543459
H           0.27481366717912   -2.01522241830658   -1.46535637400805
O          -1.77022505001234   -1.07627958041570    0.14048779545445
H          -0.83014805341543   -1.36173526380438    0.17468135618827
H          -1.88961292250144   -0.67434796403158   -0.72710133043999
O           0.34637261737073    0.75261332975752   -2.76816412463177
H           1.37074669380063    0.80760494477418   -1.59513157476104
H           0.11794483915919   -0.19369520287731   -2.81631747945718
H          -0.37268084112157    1.16509332440160   -2.25895340055663
N           0.45974027987308   -0.74051653035823    2.76356107812616
H          -0.48558843232866   -0.98157799531063    3.03692566038989
H           0.46028396230989    0.25137690634236    2.54349266494471
H           1.06047763611442   -0.88261445484770    3.56594919046316
