    26
        -50.44095345  Gyration_radius:  2.56202180504 Dipole_moment: 7.666
 S           0.82606602317924   -2.09145065334611    0.91676645936583
O          -0.09838763580101   -1.65248091087393   -0.09870553103867
O           1.65156338149077   -3.19682656971034    0.60176162038613
O           1.69156474465495   -0.84753805668426    1.31806359689234
O           0.06501413143463   -2.34839856207781    2.23137444992841
H          -0.45697124591038   -1.51393610003019    2.37628976228215
H           1.81703086310182   -0.25654430441140    0.52139529991887
O           1.93803268167509    0.77046094622198   -0.69017766076367
H           2.85342265165468    0.85649569691184   -0.96197373573133
O          -1.32965645766529    0.96446667624255   -3.05924684044038
H          -1.13882617978610    1.90030791112417   -3.13351720357275
H          -1.69809102836410    0.82286075747032   -2.14682520959178
O          -1.07431485338441   -0.04162455104038    2.55713889715513
H          -0.57267052066023    0.63443333800571    2.04820671827886
H          -1.02842366710474    0.21482785632533    3.48053942112149
O           0.32322061996622    1.88037872795112    1.26344531899322
H           1.03046431052565    2.18461341213090    1.83585182537226
H           0.75770700080123    1.56814049430461    0.45208865123796
O           0.75565558065242   -0.60656886967044   -2.46328262053706
H           0.00523824535866   -0.08575588728523   -2.83346116240210
H           1.46861666890698    0.26393390754460   -1.44869167932006
H           0.35661543130780   -1.22040670579660   -1.82513498320724
N          -2.01685573200545    0.53608606112984   -0.50083285879426
H          -1.72488481947663    1.26310884232905    0.14104298023163
H          -1.43445537348014   -0.27960601208141   -0.31981068220274
H          -2.96667481110340    0.28102254529826   -0.26230481348530
