    26
        -50.44980537  Gyration_radius:  2.48727882179 Dipole_moment: 1.698
 S          -0.80920020155054    1.61992677554142    0.41072425609625
O           0.02734729539576    1.57411250267872   -0.76617253004524
O          -0.51765462110225    2.63291496864430    1.36131744522385
O          -2.28541552491936    1.73449963102444   -0.01636231410837
O          -0.74705929786712    0.23853221978442    1.10628600462964
H          -0.24812735006848   -0.49778673352196    0.56548602385800
H          -2.45579713951279    0.98784783313059   -0.66593605583632
O           0.43355226471266   -1.62651209420382   -0.10641232127809
H           1.33835553927327   -1.57183391979236    0.29389501585360
O           2.74195460718859   -1.12187366678547    1.05476927142284
H           2.61291605393085   -0.13521015076698    1.09987664818249
H           2.82100896522718   -1.42520730772039    1.96016287292401
O          -2.64479120392206   -0.31374086498137   -1.51094359373431
H          -2.54216843415925   -1.07877034939063   -0.89166752402091
H          -3.50397082330186   -0.40525923724275   -1.92713461930080
O          -2.23315429402110   -2.17522465533106    0.34202329823266
H          -1.30391823141758   -2.37084269773452    0.14641480815986
H          -2.21669913218543   -1.62872384175695    1.13345894051798
O           0.73183145762662   -0.39223780467330   -2.42348737074180
H           0.37852731652650    0.40570886459168   -1.98322878500045
H           1.63442367801672   -0.18465325342915   -2.67259202085628
H           0.53476796867637   -1.31639410457238   -1.03951960235856
N           2.17115226726814    1.49427686039854    1.15836030924696
H           1.69563576863071    1.65156679712391    0.27398264922003
H           2.90821368646744    2.18622297543929    1.23159777973863
H           1.47826938548830    1.71866124229334    1.86510141816076
