    26
        -50.46329467  Gyration_radius:  2.58273120634 Dipole_moment: 2.496
 S           0.02421662932106   -1.72345261256744    1.43077272930408
O           1.35610194769619   -2.05840491228861    1.88101767034669
O          -0.66409937300264   -0.73357084604182    2.21459183635307
O           0.02821127125041   -1.34062707328479    0.00255996747906
O          -0.82371180973989   -3.06415940813734    1.49950897726640
H          -0.17097157796836   -3.75099877546038    1.39835940129750
H          -1.35260411552923   -0.27651120311239    0.15078202523716
O          -2.06185986738072    0.39091175448166    0.09566012575055
H          -2.37192227455964    0.46977447556545    1.00116525392712
O          -1.17918928735051   -0.85148579353976   -2.41101070848176
H          -1.97103185230827   -0.49997732487940   -1.99033009137375
H          -0.66480903614492   -1.23566343269334   -1.68380583087036
O           0.16299492281530    1.38037741482505   -3.04475576704699
H          -0.27759533126516    0.51312135425198   -2.88604995170969
H          -0.07267845989243    1.64046255285989   -3.93561700126504
O           1.76695611261632    0.41162573951944    2.71584089788593
H           0.84361556395074    0.47518510064839    2.99273522183391
H           1.88177186041342   -0.54938782926569    2.57000001913388
O          -0.42864236442034    2.43166382949489   -0.64091650096657
H           0.78623800979215    1.62736226752575   -0.13321059627135
H          -0.28820524682845    2.26074612043487   -1.59405420508840
H          -1.16008625978807    1.83560950865008   -0.37567948759410
N           1.51144089724348    0.86542582093227    0.11523264601821
H           1.73413978343824    0.86862312101484    1.14901015614606
H           2.34662561197188    0.96748792255063   -0.45174816739449
H           1.04509425604840   -0.05413778166365   -0.07005862967709
