    26
        -50.44793404  Gyration_radius:  2.52323270238 Dipole_moment: 1.634
 S           1.39041060710007    0.06120844600478    1.72107406131823
O           1.41426167584622    1.17252950610882    0.77859146825431
O           0.23821904499951    0.06775405870947    2.58768386915074
O           1.57521708852795   -1.21566002270906    1.03665461070612
O           2.65993106013744    0.25164808688784    2.65776935512004
H           3.39275419960266    0.33497043311348    2.05470025146062
H           0.03989838824424   -1.49074274899701    0.74597351642514
O          -0.93948432943756   -1.62262474827664    0.62342252433872
H          -1.23619090523749   -1.98686221530768    1.46123720481375
O          -1.91833292277086    0.83185227624948   -2.21730166562556
H          -1.40364828179384   -0.02947438811078   -2.34226837225224
H          -2.71381944205672    0.75584029630429   -2.74651413746043
O          -0.65334033124106   -1.40674854880365   -2.26027253245913
H          -0.83950864885723   -1.80875877448928   -1.40386292562609
H           0.28981676734745   -1.09003040804779   -2.18839675053079
O          -0.80746376884301    2.20641505611614    1.54219345448733
H           0.06556193874312    2.06847609584749    1.09494959468074
H          -0.68572924930068    1.65467315078786    2.33741554195550
O          -2.21057440080018    0.59779043636575    0.26818760043240
H          -2.12458022819310    0.78142979810698   -0.75478313317758
H          -1.71582758232655   -0.27570921071235    0.43649733523604
H          -1.66352819559370    1.36163761032285    0.79791662709214
N           1.74562014871210   -0.41274259066655   -1.70198114709965
H           2.60839566265339   -0.56889988570427   -2.20762002236995
H           1.84374128119311   -0.82259027456726   -0.77364228940142
H           1.64820041330801    0.58461858548284   -1.54762401943650
