    26
        -50.44793408  Gyration_radius:  2.52320997583 Dipole_moment: 1.645
 S           1.96053943271783    0.81728839075806    0.62443218387659
O           1.23650359559512    1.50379262367849   -0.43765460645513
O           1.39859919949338    1.03255852762286    1.93473615453049
O           2.13940019435616   -0.59831453837049    0.31285418090072
O           3.41581687839352    1.45503981974662    0.64782016433987
H           3.72251332753668    1.38578100244068   -0.25143110524407
H           0.78734397741980   -1.10331352933993    0.97107875506021
O          -0.05759140291798   -1.36245612032140    1.43003355268938
H           0.18512244675408   -1.42165019898213    2.35748753089909
O          -2.87685175242741   -0.21990647138023   -0.97864634079109
H          -2.27019163030043   -1.01529760056438   -1.12624209242455
H          -3.77365192423146   -0.55771378982426   -0.96176497819281
O          -1.22903916029523   -2.19066687778249   -1.09688077289203
H          -0.87472888989016   -2.26700505479396   -0.20335933627525
H          -0.48816376846476   -1.78241549789292   -1.62559470376679
O          -0.55221601455177    2.52901367507640    1.09224599320113
H           0.00599504245268    2.32289251112083    0.30065848096753
H           0.07536245266617    2.31630081653475    1.80859376229454
O          -1.89524481511592    0.44236447151444    1.23850670664050
H          -2.35187540463502    0.24732926452104    0.32146588652206
H          -1.16372527114121   -0.25826248864466    1.33952528370777
H          -1.39339665041760    1.39484622364673    1.17227097978382
N           0.77991212914884   -0.84040957900969   -2.18993624226355
H           1.40967214303754   -0.87225789447297   -1.38884768127819
H           0.50069074028996    0.13053077337020   -2.27508808613890
H           1.30920513448305   -1.08806846865176   -3.01626366975299
