    26
        -50.45400602  Gyration_radius:  2.46736775418 Dipole_moment: 2.268
 S          -0.50050170389445   -1.38991250720087    0.17373635906318
O           0.52154334654562   -0.98699626087029    1.10466427794876
O          -1.83085261255016   -1.02285701070273    0.54770872599703
O          -0.16475754372842   -0.82125062872093   -1.22226066354546
O          -0.43703563431108   -2.89546282153731   -0.07658925398949
H           0.45390841221202   -3.04777661719327   -0.53768258529575
H           0.33345724228242    0.07944894900113   -1.19715133563677
O           1.07332080263556    1.37678778581390   -1.21681921623146
H           0.97520161357386    1.76706478795470   -2.08831877076220
O           2.77971259441315   -0.74106009805217   -0.28399036641204
H           2.13237284941543   -0.80380990539918    0.44107382802289
H           2.58156401878843    0.09957593770232   -0.71363042226938
O          -2.65574317103737    1.20271942934779   -0.71248611431900
H          -3.58764794289542    1.32208179529290   -0.52170664631806
H          -2.39712267880734    0.36089759197445   -0.29096932588844
O           1.77431591291988   -2.95369532503129   -1.34501288013319
H           2.29126469800157   -2.19357096591061   -0.97415744680359
H           1.52653193789724   -2.69971585200653   -2.23735186819047
O          -0.57060131989323    2.68112482572599    0.21143970846075
H           0.49060234033616    1.95284930742839   -0.59734130734452
H          -1.39016057665472    2.33087488638715   -0.18638962045515
H          -0.55365237757425    2.28963386139364    1.12064068211906
N          -0.69602415013616    1.24205214345738    2.47777571374931
H          -0.17672219431109    0.43905859446135    2.12980525522193
H          -1.65040078288931    0.92868686241291    2.60761243180722
H          -0.32257306027976    1.48325123427375    3.38740086121255
