    26
        -50.47220437  Gyration_radius:  2.4198701033 Dipole_moment: 2.799
 S          -0.17333257642663   -0.18275103119221   -1.70140241247290
O           0.96008302445391   -0.92189039020864   -2.19957238777536
O          -1.03832160609266   -1.00304961264867   -0.85875671093324
O           0.18322233866534    1.06838392747152   -1.05910237215142
O          -1.04322310922750    0.22373076693132   -2.96583213189209
H          -0.86500139455188   -0.49997496940923   -3.55608793901818
H           1.23121700493753    1.22336774592160    0.17856659910192
O           1.87044168422319    1.22492381275186    0.92833090467761
H           2.25509378168673    2.10249536686113    0.94981695462431
O          -2.13635461589384    0.53660777377879    1.09758920650291
H          -2.31582276436858    1.37082932774255    0.63655488537553
H          -1.87452038544657   -0.07538314833516    0.38872513695312
O           2.56133913149135   -1.27990054535144   -0.08476376268238
H           2.62654595235056   -0.38302866507625    0.28053589112496
H           2.13095850124165   -1.18464618122508   -0.95921272953911
O          -2.17085187581985    2.34234990868309   -1.00371364469573
H          -1.25996394229807    2.00522865449186   -1.06880657363397
H          -2.60330836931025    2.07708717353418   -1.81706260888468
O          -0.00561244350464    0.11271839292933    2.63481290544183
H          -0.85644717535417    0.38685484198980    2.21604835148599
H           0.21251261375682   -1.22286707319904    1.90480982541149
H           0.68548706167798    0.65607773614721    2.21906435077505
N           0.36481161427461   -1.99653150072745    1.16387674519295
H           0.20113297969126   -2.92498167260136    1.53538801237993
H           1.34369803102786   -1.88112290804155    0.76700536131013
H          -0.28378341129028   -1.77452773104881    0.37318815330832
