    26
        -50.47220505  Gyration_radius:  2.41990659249 Dipole_moment: 2.797
 S           0.39012988050551   -1.65715547440646    0.25825881926503
O           1.16508746946026   -2.12702236261573   -0.86329323758372
O           1.11615875643222   -0.67521935118151    1.05780395935609
O          -0.93460153291946   -1.18890463400366   -0.10433601694321
O           0.15276252398279   -2.91085358081982    1.20320512051668
H           0.92726984776992   -3.43130800091888    1.02083851283007
H          -1.25755580915347   -0.03425480782459   -1.20717012279952
O          -1.36112716572917    0.67508685752273   -1.88309120264031
H          -2.24245282613047    0.57255772934029   -2.24545678688601
O          -2.16794374921918   -1.15068429892641    2.27113853441733
H          -1.79943692052823   -1.90026690712485    2.74154205228276
H          -1.83934549985090   -1.22652703205788    1.35786152942461
O           1.23365362005966   -0.07498876163192   -2.58120084235058
H           1.25228500072972   -0.92945692395812   -2.10324870100982
H           0.29844386008876    0.17720755633254   -2.64313105737893
O          -0.62575201867751    1.14299533215206    2.08920212402214
H          -1.39633006566308    0.59673412963893    2.30970069464146
H           0.06217723675731    0.49846368632857    1.85068701638234
O          -0.42495961473208    2.60102812905673   -0.12782795485339
H          -0.63182853958248    2.20012280551261    0.75025027999825
H           0.98318824818639    2.02242180514056   -0.34031859429612
H          -0.92760640934917    2.08696195422091   -0.78265910744357
N           1.83670714450008    1.37047777544466   -0.47269177769712
H           1.72234445192276    0.59605340454356    0.22177640971773
H           2.71724860086982    1.85718668998695   -0.35184870712107
H           1.75148348027413    0.90934429025480   -1.42599092384981
