    26
        -50.44213322  Gyration_radius:  2.59765188414 Dipole_moment: 4.735
 S          -0.25069203212630    2.11516845125681    1.06576596517418
O          -0.64200792748485    1.57632427031837   -0.21825879598117
O           0.25644762279417    3.43437352885013    1.09076133664432
O          -1.49399875134209    2.00063668001235    2.00520801732455
O           0.78506626301509    1.17741947072370    1.71225665881310
H           0.48906420470848    0.20500956373150    1.70432842578906
H          -2.04702510579061    1.24399045997007    1.70210819347597
O          -0.03362134618888   -1.23323024089319    1.72475726138482
H           0.42240516683253   -1.72997921710698    2.40613211666288
O          -2.08811219005268   -2.04566647539582   -1.37821340404566
H          -2.72521555809763   -2.75966781203121   -1.42415675911144
H          -2.42444407452875   -1.40510099596092   -0.72962521770620
O          -2.33767507764975   -0.18491634289880    0.71371380905803
H          -1.69889458412054   -0.74575963412252    1.18471809524559
H          -1.80439772043756    0.36244835720147    0.10215509949814
O           1.87824159324563    2.27400224423342   -0.99749059287357
H           0.92931901718681    2.09777885972721   -1.02003441151660
H           1.98432830437225    2.98309812129732   -0.35864377299726
O           0.52187792165555   -2.26417293792853   -0.50084835553602
H          -0.32898001628622   -2.23899992590060   -0.97394937041022
H           1.13474374913359   -1.64096363155365   -0.98506742508454
H           0.23361168275251   -1.67264194425424    0.82075017220662
N           2.14979304525249   -0.57018364932356   -1.76921662442323
H           3.11107454064977   -0.88606575749689   -1.81591102079003
H           2.15461942491566    0.35305470890546   -1.34051590034247
H           1.82447189764476   -0.44595612131818   -2.72072350045980
