    26
        -50.47330245  Gyration_radius:  2.42947248073 Dipole_moment: 2.004
 S           2.15483419245442   -0.26990836782473    0.35749560638813
O           1.70125277069632    0.50702962977789   -0.78779316896454
O           2.50133301275817    0.52616405283244    1.50007521647150
O           1.20074771652350   -1.33638984922583    0.66683163543403
O           3.48614088374326   -1.01306526470295   -0.09356776975488
H           4.15046689863654   -0.50085180929167    0.35572304296043
H           0.34644606991785   -0.37585850130614    1.71159277818527
O          -0.19378813341420    0.25049590493462    2.23993236124806
H           0.36946417745158    0.48853837709879    2.97996357251696
O          -0.24476383990940   -0.21395073395246   -2.45687656783673
H           0.57628083476956    0.04844138748773   -1.98769999149202
H          -0.48592388402372   -1.07317970418267   -2.07361839696734
O          -2.42553406934507   -0.54736082331656    0.74190322302604
H          -1.82579654152978   -0.30294961649444    1.46258208474245
H          -1.98630744005277   -1.28220940008113    0.27509415552482
O           0.16757497673134    2.30429107029380    0.43304937303098
H           0.03347300341003    1.78768740317047    1.24763933653173
H           0.88902821012323    1.83385593102716   -0.02944900697838
O          -0.80707489759823   -2.25688946857471   -0.68909554842610
H          -0.00948153822060   -1.94164604715007   -0.19266623204354
H          -0.76531328022843   -3.21393148010294   -0.67642086854308
N          -1.79673338697867    1.33699859934058   -1.01209378308187
H          -2.49041131863009    1.93968361758034   -1.43776380371665
H          -1.25379201360775    0.77180818247791   -1.73644947880244
H          -1.06648435096439    1.88763603086024   -0.46263425205883
H          -2.22563806271783    0.64556087933871   -0.33575350738955
