    26
        -50.46173952  Gyration_radius:  2.46551024879 Dipole_moment: 3.764
 S           1.46614947327918   -1.58209500447509    0.97633748486804
O           1.27434723119619   -2.03531536631865   -0.40431139978866
O           1.82286559147628   -2.59108549111902    1.91041556884242
O           2.63043645764363   -0.51555293278295    0.91920770309537
O           0.27200687447181   -0.80092654781461    1.39270137072777
H           0.38901539205333    0.74202704640888    1.57219608265102
H           2.37922836181024    0.05626454746442    0.17706004857578
O           0.46533580714424    1.74070516693475    1.58023027720316
H           0.89664121175687    1.96371746497274    2.40619896458047
O           1.78566467307144    1.50953552670076   -0.71321287657782
H           2.48673878201670    2.15208770163146   -0.83333096689889
H           1.29732547212181    1.76135620957134    0.10616893791893
O          -2.19958372319822   -1.10500970144157    0.73651154337551
H          -2.65756862840983   -1.62901212753105    1.39435055592395
H          -1.25874456634190   -1.02372389372649    1.05422567513405
O          -0.56625899758206    1.15823035842837   -2.14852820272716
H           0.33747762587742    1.32141973929507   -1.83397510950302
H          -1.15442178230020    1.48660567756955   -1.42786909908545
O          -1.92820262023947    1.64335402382288    0.09571024924100
H          -2.22542107442212    0.75874991110750    0.35507223030591
H          -1.21277543269199    1.86807742498013    0.70707470470494
N          -0.87859878229963   -1.38984289818257   -1.62660420498571
H          -1.09340223681637   -2.01512435651743   -2.39451239296758
H          -0.76256351928220   -0.37882450657336   -1.96021518237892
H          -1.61208201024267   -1.41115994872431   -0.89951021812420
H           0.04639040989960   -1.68445801367214   -1.14139174414997
