    26
        -50.45486381  Gyration_radius:  2.43450494608 Dipole_moment: 7.257
 S           2.29922909100321    0.25862600334935   -0.78392880865744
O           2.80958548980296    0.74459189105332    0.47469882022130
O           3.19893890816929    0.09736217359442   -1.87334158036715
O           1.73276085243240   -1.23757246042436   -0.43718606959277
O           1.05084211055532    0.97293928968005   -1.15221767218172
H           0.67016944680339    1.55181091906650    0.18394212480731
H           1.47996432362850   -1.10284655292635    0.50105620627053
O           0.36540676280658    1.84823642468957    1.10392877347467
H           1.07984287496860    2.40979309838786    1.41252978267565
O           0.91683372875395   -0.59394323911701    2.01304751744669
H           0.71003777200877    0.34095104663994    1.76041144644661
H           1.79267541646733   -0.55033752183935    2.40534233718305
O          -1.62567370481821   -1.42300342712886    1.16067895942172
H          -0.80435679032535   -1.31569068597935    1.66201298063391
H          -1.98072899486033   -0.52404880859722    1.04154066197694
O          -2.19482948653276    1.22124647610470    0.56344807722543
H          -1.30879399061074    1.55861131522577    0.80318909604775
H          -2.83321859090200    1.83703681403971    0.92559823915064
O          -1.38302430480912    0.64740467034832   -2.07602012544081
H          -0.45045245290451    0.92517124006869   -1.93541130496596
H          -1.85504440038669    0.96044691734672   -1.28815396249612
N          -0.74174400739514   -1.75743255572361   -1.31292243778313
H          -1.08750336048069   -0.84448555018499   -1.76748849075898
H          -0.95030610772126   -2.57521223838275   -1.87407704674392
H           0.28906083035933   -1.64685780753178   -1.16175330149113
H          -1.17967141600642   -1.80279741175111   -0.34892418250112
