    26
        -50.45379483  Gyration_radius:  2.44761065282 Dipole_moment: 9.050
 S          -0.45819201696769    0.95391585509283   -2.02112376953532
O          -1.31460842147391    1.69260507278725   -1.07463683878916
O          -0.47022244223584    1.45223662267318   -3.35179176273126
O           1.01219138699941    1.10658175159203   -1.42845666654884
O          -0.73105918054859   -0.48888384060694   -1.91886684117726
H          -1.36884991219664   -1.36092086340114   -0.79526744264336
H           0.95831004945164    1.73774483464703   -0.68369814217735
O          -1.75149986030218   -1.86460953662054   -0.01699442584618
H          -2.36897518355049   -2.49207590107263   -0.39426997929187
O           0.88454298406171    0.13972008251758    2.22702927651650
H           0.97724131986424   -0.69491539816311    1.66137364644381
H           1.18616329323157   -0.10423054882474    3.10271930203862
O           0.91819184936352   -2.01550712602707    0.83469207392652
H           1.33689722664441   -1.92178688401395   -0.05471263059758
H          -0.01505229026361   -2.19071031644282    0.64033373866115
O           1.21093342819173    2.46825272555360    0.84203223735077
H           1.21363256342395    1.66921747154278    1.40035411612600
H           2.10497299714736    2.81438130477248    0.84133777134762
O           1.67178888533338   -1.58878700536460   -1.68086693413588
H           2.23559636832246   -0.81990728972044   -1.79359981221013
H           0.77583174457395   -1.26679361209401   -1.91517543372156
N          -1.61267602859297    0.55405745166905    1.15063969189595
H          -1.46843212824074    1.09990079115529    0.17908528759346
H          -1.87261744365184   -0.41537801012646    0.88774951862943
H          -0.71574185063967    0.52981988705755    1.66736293591159
H          -2.33836735803466    1.00607249130455    1.69475107296792
