    26
        -50.46728126  Gyration_radius:  2.43657974196 Dipole_moment: 3.885
 S           1.53783988468741   -0.50689201793196   -0.83309488929960
O           1.16799699439101    0.11479400453928   -2.09364725180389
O           1.43471043936287    0.38052618026755    0.29622201262331
O           0.82000138098984   -1.76554624545115   -0.63817735989443
O           3.07180080260820   -0.89426004500785   -0.96130448440257
H           3.11389349986820   -1.37805993021680   -1.78068996836080
H          -0.61157876883385   -1.06421076444837   -0.97342083592270
O          -1.44033580889725   -0.58904071839773   -1.21832148782850
H          -1.38765995655011   -0.50813067945936   -2.17397532290235
O           0.26784189443423   -2.67733022300868    1.79301319419211
H           0.23085140608806   -3.63087963139568    1.70415380845749
H           0.57300829160408   -2.33250186162076    0.92842217913794
O          -1.89123806695128   -1.05435782252657    1.70856332371582
H          -2.02261393981628   -1.06863079903987    0.75538457700664
H          -1.18361017752318   -1.70661158036051    1.88611327730940
O           0.99890500715424    2.60003444969675   -1.30651986179152
H           1.09397730200618    1.72956091120615   -1.75985901185914
H           1.57830507905072    2.52097080246805   -0.54170257318705
O          -0.42678853802331    1.13747219359933    2.12056611810440
H           0.40785476433645    0.82520747743637    1.72869527308501
H          -0.99285505509086    0.33323828891902    2.19224888927221
N          -1.29856718640407    1.93083805606840   -0.17654196579504
H          -1.00288324843569    1.72906439334340    0.85111405511448
H          -1.47737489131324    0.99754054771156   -0.60643499553069
H          -2.11019966780238    2.53472978471544   -0.23582293022615
H          -0.45128143092609    2.34247524890076   -0.66498374920514
