    26
        -50.46460700  Gyration_radius:  2.5258623591 Dipole_moment: 3.682
 S           1.06996339272306    1.56026969581831   -1.32432693999501
O           0.94176178195240    0.86270461749016   -2.58652343643124
O          -0.14361803394881    2.17416507809517   -0.83662756818708
O           1.67792489720954    0.70572004205379   -0.29801106346245
O           2.10816163164837    2.73669385699844   -1.58146259355840
H           2.67927729084093    2.36047115682940   -2.24385863224341
H           0.74537134376305    1.03947304379734    0.97268653814925
O           0.12325547914082    1.21682736980674    1.72183792118761
H          -0.29582706798994    2.04045453210734    1.45604001327856
O          -1.62175913824543    0.53124772163090   -2.29221868330431
H          -0.73531155851447    0.50507029678819   -2.71054492864487
H          -1.51975122685211    1.30031062600515   -1.70523544142640
O           0.90437764128311   -1.32297018006515    2.61967076680493
H           1.76678781087148   -1.40049204671091    3.03028175215135
H           0.75201107220600   -0.37497992716771    2.48185944179657
O           1.04143930052678   -1.84383719095095   -0.10578879693986
H           1.39447411325496   -0.95322917949896   -0.32370272770059
H           1.02806626211099   -1.86194278988880    0.86891655974113
O          -1.84636325080313   -0.63750005908181    1.84180438019900
H          -1.24153280786556    0.13568492219969    1.79580566354154
H          -1.40179408705344   -1.25852596636006    2.42671303011896
N          -1.50410827026159   -1.52134463961760   -0.65117673866078
H          -1.82137029574782   -1.19904156654320    0.29894401575805
H          -1.61290267450903   -0.71760317118738   -1.34869250212515
H          -0.46295512044705   -1.74361027929693   -0.54674318916469
H          -2.02557850530302   -2.33401597323254   -0.95964685087850
