    26
        -50.47071252  Gyration_radius:  2.41584044422 Dipole_moment: 4.165
 S           0.98447689296075   -1.60989444321720    0.74063248064904
O           0.42534989912635   -2.08067381028233   -0.51522637081045
O           1.92247382449080   -0.52234747187449    0.60057647133430
O          -0.06726207933819   -1.30407730851156    1.71320791527249
O           1.80020970835258   -2.82710585443171    1.34089808947458
H           1.19720322000550   -3.55345394052665    1.22520567901959
H           0.26764517580865    0.20739154913826    2.27652378426152
O           0.63879944556788    1.11456272726460    2.37728896943585
H           1.57268338898537    0.98496184242116    2.17646696146424
O           0.03540720091851   -0.25402554779482   -2.46427006921662
H          -0.81178984224372    0.10820411573329   -2.17268346782425
H           0.22799576091921   -1.00096213610595   -1.86527543333099
O          -2.11870018819560   -1.54977314004390    0.11250128764446
H          -1.50321389771065   -2.01174463614735   -0.47642079993036
H          -1.56971891109738   -1.42966320322488    0.91391270464869
O           1.79693621481177    1.33660807082909   -1.30326403678465
H           2.08106177197500    0.66529034662447   -0.65033027218044
H           1.27887593723264    0.81486914119860   -1.96136521553802
O          -2.18804732191321    0.80878546722984   -0.97467716821337
H          -2.21914489569741   -0.08753511320665   -0.52720306251289
H          -3.09466130100458    1.02772692116798   -1.19242757605928
N          -0.15086747991918    2.25793114287260    0.12876193835016
H           0.08358025956303    1.86721299866388    1.09092722299809
H           0.68732826400155    1.98310826930632   -0.51419074909311
H          -1.00032233297834    1.79136130989876   -0.24348407158414
H          -0.27629872462391    3.26324271301569    0.16391478852329
