    26
        -50.44952149  Gyration_radius:  2.5114431374 Dipole_moment: 10.596
 S          -1.48883196945883   -1.89331474893337    0.88288582344147
O          -0.34723959048866   -2.46887714154462    1.57420769917754
O          -2.77606675772954   -2.32176424959130    1.31188058801352
O          -1.36124013012701   -0.40336875626453    0.89295179331882
O          -1.34706736182560   -2.25685738288946   -0.65015336243177
H          -0.49234851722969   -1.87798191435224   -0.91651655632337
H          -0.30419351336776    0.44212399374345    1.55076073590358
O           0.37683886539784    1.12298434227818    1.87560022051483
H           0.10857621691046    1.34439689137919    2.76811431809291
O           1.82337721097871   -1.17998394951933    1.13452584167567
H           1.60028365459673   -0.31103501669978    1.49549544732201
H           1.05972797014350   -1.76316696281940    1.41003468744849
O           1.95346809359131    1.14840174732114   -1.82129684769481
H           2.78726461295823    1.11032596446294   -1.34768752534418
H           1.59640338045637    0.23013217769067   -1.80811819895149
O          -2.15759878270564    0.93284734102893   -1.12392235479079
H          -1.92159521174124    0.28568372021362   -0.39831978439438
H          -3.09729581629221    1.09382263753634   -1.03137924413329
O           1.12641747639393   -1.33149994537834   -1.32258223040052
H           1.45830517893628   -1.28232960597005   -0.36560428511250
H           1.51637139155545   -2.12043632188577   -1.70265149422507
N          -0.02259675939687    2.33008317758634   -0.48154166594079
H           0.76146037159034    1.94540583145160   -1.07610268325483
H          -0.92725044629037    1.87461038820129   -0.80672953071253
H           0.14707260455574    2.00932308199434    0.50461299367950
H          -0.07224219143608    3.34047470093162   -0.54846438487232
