    26
        -50.47163768  Gyration_radius:  2.37115870519 Dipole_moment: 7.007
 S           0.46057603764832    0.88488025157820   -1.17073161690069
O           0.59787761752600   -0.56220167200706   -0.97603677221251
O          -0.75425616492820    1.19277880691350   -1.91141263916028
O           0.45876339870704    1.55870611790382    0.13204141955470
O           1.66417835072161    1.38206167453395   -1.98294200534945
H           2.43721134306349    0.85628670329652   -1.60949864396875
H          -0.81583261805258    1.34992124511961    1.05198012628257
O          -1.61983687993392    1.10413167047235    1.58828819129941
H          -1.81933619792296    1.87003700458897    2.12863889388911
O          -1.36332576534826   -2.36154940871291   -0.56051134377367
H          -0.59784343196877   -1.93311054328227   -0.98822728192909
H          -1.07164988033147   -2.48529871996596    0.35556239521995
O           2.42483538224112    0.44874903116479    1.57582498222570
H           1.75812150699359    1.02009035828036    1.14857973452368
H           1.92737704212187   -0.30138809510474    1.92823105535669
O           0.07993722967101   -1.23923346877295    1.57909618497543
H          -0.50921631238500   -0.54726248280546    1.90088851225612
H           0.35414012604408   -0.95868156601071    0.68393726531757
O           3.32609372540370   -0.19498991977352   -0.84175402339424
H           3.22438235173709    0.05447472291997    0.10860611827780
H           2.72526834015432   -0.93735575061109   -0.97279269127028
N          -2.61599561079856   -0.04410412951784   -0.63270980671112
H          -2.27450745266088   -1.05345436243985   -0.60438060955107
H          -2.50461733406566    0.37981046209453    0.31093963019152
H          -1.92459031227865    0.48789468719019   -1.26622754153549
H          -3.56775449142024    0.02880737295314   -0.97538951363313
