    26
        -50.44304711  Gyration_radius:  2.46040471517 Dipole_moment: 7.277
 S           0.11566944376494   -1.53499509125578    1.78696319472212
O           0.75345452927135   -1.53989049566424    0.48642091676728
O           0.90623392847782   -2.00085636525189    2.86615543122351
O          -0.31337551635811   -0.03693979632560    2.04820610123449
O          -1.22556186698072   -2.24082480040937    1.73306738241097
H          -1.76191082932924   -1.82237902149832    0.94334829233854
H           0.22833205231047    0.56452253763134    1.48838100833623
O           0.90945533100366    1.74922863291097    0.51799267757264
H           1.34349547960666    2.42117438062106    1.04679638610776
O          -0.45419891883776   -1.42706968220183   -1.94413200838831
H          -0.29040378794038   -0.50123389261608   -2.19822255806961
H           0.12262093210794   -1.60572983628219   -1.18318095513241
O          -2.38485131760729   -1.12951189227296   -0.18925802734549
H          -1.79789000081801   -1.34168055744145   -0.96279726601871
H          -2.32650144287192   -0.16359221420986   -0.06934481540088
O          -0.24512622433650    1.32479857692983   -2.14338974843247
H           0.22149395356462    1.61165359957699   -1.34993320185780
H          -1.16913571058995    1.55095885348768   -2.00470480727253
O          -1.98706707623926    1.58391802000359    0.24727674415419
H          -2.42593741903964    1.67555481183536    1.09509704606785
H          -1.04494340637294    1.72672529040180    0.41119127248431
N           2.67367975299624    0.20828938148592   -0.57960018448034
H           2.20775814055791   -0.64080894934461   -0.25614163807532
H           2.64970853446161    0.20818709576746   -1.59194546326989
H           1.65456308313738    1.18933329904788    0.08586700175137
H           3.64043838606124    0.17116813507325   -0.28411278142773
