    26
        -50.46771541  Gyration_radius:  2.50466193549 Dipole_moment: 3.801
 S           1.71490689435768    0.66224764554886    1.05657922055392
O           0.29075172432423    0.93619455002984    1.22041301129483
O           2.50895994704684    1.83827695171318    0.83849696793502
O           2.20506940150234    0.04024687024456    2.43571012191644
O           1.91938531875912   -0.39361019311974    0.06675741534130
H           0.86738350092287   -1.52654913237731   -0.19410251213021
H           2.63234632990039    0.78438501895732    2.84637513088948
O           0.18504272897302   -2.21720553673610   -0.42461543705737
H           0.67731878982300   -2.96134948115598   -0.77389846219373
O          -0.40678784644594    1.76340152070022   -1.18883505321108
H          -0.21567693465341    1.63469084717222   -0.23576797467028
H           0.48115573548527    1.77737725420251   -1.61503569696965
O           2.15903914863443    1.47930643128579   -1.82999761534801
H           2.53432898617611    2.08340528156534   -1.17546552690444
H           2.20860406926760    0.62084288345125   -1.37787452727771
O          -1.12563591578569   -1.20849095689483    1.88369303399082
H          -0.71722647926598   -1.86067843913169    1.30095165831551
H          -0.58812924028599   -0.39603448878300    1.77132537899984
O          -3.25077654388686   -0.37480753501397    0.59999564933796
H          -3.38807387813537    0.52265641079460    0.90901750738694
H          -2.55510787340442   -0.75895585536451    1.20164042585435
N          -1.63546620713518   -0.50283403091549   -1.49103516326323
H          -1.12735284760655    0.45348308917478   -1.46949066838857
H          -0.95631892340958   -1.23885031771996   -1.20498701196005
H          -2.38950879452993   -0.46027285038611   -0.74492372578552
H          -2.02823107067152   -0.69687593724198   -2.40492614666503
