    26
        -50.46255588  Gyration_radius:  2.56772794637 Dipole_moment: 2.280
 S           0.85807174247026   -1.36855024571932    1.06403821515481
O           1.55315570916122   -0.09207110319179    1.14977497799693
O          -0.54715687204488   -1.16375079542874    0.72107569573739
O           1.52049571869570   -2.34351000652240    0.23710678399329
O           0.82338187403417   -1.97523288783973    2.53643921072529
H           1.58975874283106   -2.53914982913134    2.56466528415136
H           2.35464425503416   -1.33658904118786   -1.02688065353298
O           2.61609265229610   -0.43319928449958   -1.27387375789864
H           2.52259475881304    0.03851726191566   -0.43186745506380
O          -0.99092824760408    2.93022352460537    0.73792652595170
H          -0.84622181430669    2.31890544982720    1.50232112269422
H          -0.23419683926288    3.51849942558175    0.72658430630821
O          -0.39827802817618    1.03972527878955    2.50478331986972
H          -0.99328566104657    0.28607773698652    2.47141820141368
H           0.42982848951175    0.70982687489890    2.09854422668829
O           0.82216601893606    0.68870785120442   -2.84188341529471
H           1.57364877852896    0.31778973545012   -2.30919779536344
H           0.68839716221300    0.07813621103678   -3.56842781782403
O          -2.73593906381097   -1.33289036743768   -0.97505124379774
H          -2.02343116124203   -1.49411034083940   -0.33647772710928
H          -3.34647764573844   -2.06567414904108   -0.89105356904695
N          -1.05357118813593    0.86272742953116   -0.94663405997111
H          -1.97595439015447    0.57495167442284   -1.27734399708499
H          -0.36480494648272    0.88005535112988   -1.74090773766510
H          -1.08765244835199    1.77708245653589   -0.42989136268084
H          -0.75433759616218    0.12350178893473   -0.26518728834651
