    26
        -50.46797832  Gyration_radius:  2.50733772211 Dipole_moment: 3.880
 S          -1.81127641076589   -0.39587534343964    0.16859974302489
O          -1.00167415093714    0.41456714715560   -0.78216633142315
O          -1.49231289461256   -1.79382105334176    0.01845277606809
O          -1.63625776791604    0.10202991701832    1.51666377851736
O          -3.30086035540160   -0.20397381040558   -0.25038883351510
H          -3.40536481461178    0.76566530847220   -0.27213979178809
H          -0.17639488777650   -0.09074144054739    2.10203922178295
O           0.77339902330920   -0.20620477663265    2.38018037980120
H           0.77193708734953   -0.14386362771242    3.33675932267908
O           2.97959949216031    0.72514190252518   -1.24984982237759
H           2.35992558821373    1.24302972433495   -0.67080264259409
H           3.76881784172230    0.57267778034089   -0.72795004662800
O           0.94474727057607   -2.43496764479821    0.80901140021414
H           1.06719980568510   -1.74168975599187    1.48393101529816
H          -0.02384466214758   -2.46559227709393    0.66559810133238
O          -2.79466909688727    2.36316648891946   -0.65829267532598
H          -1.96015290934635    1.86767151847462   -0.75316055686676
H          -2.98391714459580    2.75507035334410   -1.51367968357745
O           1.14107840759764    1.66848642796703    0.37420077615146
H           0.31026867783483    1.37725632043718   -0.03956749443584
H           1.18986485903392    1.16192929888480    1.20073938482015
N           1.06714893661725   -1.11701044667851   -1.45358985933934
H           0.20160378206945   -0.53484987916550   -1.30590044555708
H           1.14471558526314   -1.73675870431816   -0.58171083377579
H           0.96998538711861   -1.68149989464926   -2.29014156948305
H           1.89643335044520   -0.46984356309018   -1.50683532299542
