    26
        -50.44665542  Gyration_radius:  2.50481934383 Dipole_moment: 4.216
 S           1.70063053146540   -1.23710803816277   -0.20328909476987
O           1.04830503450092   -1.64110708530419    1.02622038247943
O           2.93632129477889   -1.84817448134934   -0.51819555859635
O           0.68853013838345   -1.47592058047382   -1.35971844041252
O           1.84219578671702    0.29755285637956   -0.20050119582996
H           1.44762643053721    0.76934163670890    0.64641565782147
H          -0.20315678004034   -1.37629367206680   -0.90717536662933
O          -1.58404948583995    1.39450277092343    0.49926593609183
H          -2.38300805922529    1.92094805894694    0.54066275494339
O          -1.43989288543729   -1.24444395387704    0.05376369403420
H          -1.59784340783015   -0.29727054171445    0.26822550135347
H          -0.90140186829115   -1.59131939494601    0.77951614835115
O           0.87814582435397   -0.62646192090555    3.48073961447392
H           0.93928648228459   -1.16595596860606    2.66888633594401
H           1.67256890979206   -0.80675344257113    3.98604101419956
O           0.80651205815484    1.43240515066015    1.77938301676193
H          -0.11954892819466    1.51553671377209    1.48201331607605
H           0.80475563026269    0.78724827687742    2.52200389688414
O          -1.61135399789419   -0.70340542045211   -2.92799466679647
H          -0.81331164434208   -1.22979677302998   -3.03142589599481
H          -2.05743349716474   -1.04711795949327   -2.14798919926070
N          -0.36843773307232    1.67748118804152   -1.78089810987769
H          -0.81117852695525    0.98549217895419   -2.38600159969270
H          -0.31391476948918    2.55293670833154   -2.28437884226038
H          -1.13757317496503    1.59504399999829   -0.39630373074595
H           0.57722665752547    1.36263968336207   -1.58926557857402
