    26
        -50.45719806  Gyration_radius:  2.44518609488 Dipole_moment: 6.988
 S           0.84114267294238   -2.14415703662858    0.56548210447402
O          -0.33229526099810   -2.96333780090195    0.39506581778617
O           1.95769693112984   -2.74750777191745    1.22020834888253
O           1.35413992897544   -1.79765746200370   -0.93561796031236
O           0.49921106841001   -0.81670968397356    1.09901686030495
H           1.36119796640020    0.48571724054582    0.91364141219077
H           1.67197389906800   -2.65990043939078   -1.17769169479299
O           1.76288602006405    1.39304468304991    0.80661328515026
H           2.48491023505089    1.43672088839482    1.43452592255693
O          -0.96775265347095    1.11797385730740   -1.92297610043501
H          -1.28296376593871    0.20796905785458   -1.70758936123128
H          -0.00669724490096    1.02357873854332   -2.12689685783876
O          -1.77805999935838   -1.20594819951133   -0.91717867170332
H          -1.22146808176104   -1.91249474471083   -0.52528350077330
H          -2.35309271000617   -0.92262421346931   -0.19931758126389
O           1.66721501847432    0.78005750879711   -1.92668931350132
H           1.89472674103738    1.17852727612000   -1.07358335071386
H           1.64539623245053   -0.17275722814239   -1.75811204685302
O          -1.88211310232038   -0.01036050769072    1.72780155154265
H          -1.01800922178032   -0.43696119154307    1.48890797657927
H          -2.07447226905100   -0.28619431672131    2.62445491390647
N          -0.85163171953221    2.12327231539260    0.42136618044148
H          -0.95046248183633    1.75085241353689   -0.62834978290869
H           0.15491304154801    2.06832162509149    0.65746723715074
H          -1.21080359965240    3.06510152062092    0.52354745890995
H          -1.36558762494319    1.44547348134525    1.02118714245126
