    26
        -50.46794038  Gyration_radius:  2.44518300471 Dipole_moment: 3.627
 S          -1.88611215023837    1.19936280526210   -0.58066503254770
O          -0.68746814353277    1.94936996312542   -0.91345360478514
O          -2.93893079537341    1.94604482704400    0.02834843275890
O          -2.46743583554379    0.68015212053287   -1.98834650519506
O          -1.52302621667160   -0.02992840354662    0.13617846009404
H          -0.48651771724569   -0.17903307488349   -1.25347832624852
H          -3.35056312068338    1.03368379424081   -1.97383296204771
O           0.12634254713895   -0.50897376979817   -1.93613096206136
H          -0.02639238216258    0.06044145127873   -2.69253384338600
O           2.39122776783437   -0.15586911743527   -0.47473309127323
H           2.19632672659338    0.71119568154797   -0.07426192974424
H           1.69628714730726   -0.28022891824008   -1.15267664308700
O          -0.05733817806692    0.33180569488799    2.33542378934681
H          -0.77186367352051    0.24305846906705    1.67256619928610
H           0.48251857607686    1.07237541762704    2.00922277281298
O           1.31428395689123    2.07013058390310    0.71319789136372
H           1.58972688790638    2.98641350410344    0.76376490779651
H           0.54566016524011    2.05440789123311    0.08224180245437
O          -0.72985956928331   -2.59288757420653   -0.18655580870218
H          -1.26128507601322   -1.80151455125688    0.01793350900935
H          -0.41987046184570   -2.43934679006051   -1.08685072751389
N           1.27295748717206   -1.69827281138198    1.33002928740382
H           0.52903358241379   -2.21492691143632    0.78841009369421
H           1.87143624890832   -1.16623470838180    0.62355409249485
H           0.76984089097939   -0.95044127215156    1.90121289274062
H           1.82102131572617   -2.32078428107671    1.91143531532682
