    26
        -50.46060887  Gyration_radius:  2.58732818938 Dipole_moment: 5.777
 S           0.30293645378143   -0.08373131437790    0.62141126872736
O           0.35004389764459   -0.20248706151585   -0.83132218199218
O           0.38578002102311   -1.35566978047669    1.30468992426252
O           1.35104709364411    0.86045448241095    1.05787324421304
O          -1.04573732042664    0.59993513618350    0.98819229530772
O           0.02705955128979    3.04737587153473    0.19616859704045
H           0.50058415232191    2.33240252674887    0.66136351219523
H          -0.89621388644800    2.91265577287151    0.42357340811268
O          -0.46306914680275   -2.78659806377407   -0.76860342884310
H          -0.05494488524895   -2.53906177156344    0.08091092629109
H          -0.30389486484530   -1.99938188389399   -1.30572055702945
O          -2.98353412100259   -2.75999721337427    0.11065218893380
H          -3.27803213246836   -3.66498362938278    0.22313313741297
H          -2.09833647283947   -2.81039684384811   -0.32241375153261
O          -2.13324116852441   -1.33577748450677    2.21587029308514
H          -2.59933508278253   -1.83332836575015    1.50473512767123
H          -1.23315713073104   -1.69597326325649    2.24109794752352
H          -1.58917601687183   -0.08031422082386    1.50475040608201
O           0.73692225533980    2.02018130803871   -2.16255255916224
H           0.35690192932549    2.62827131142632   -1.49067572109704
H           2.07933250462642    1.81507369501534   -1.57212894833548
H           0.41730767538185    1.13374705155581   -1.87492497886496
N           2.89686885493560    1.52750063582316   -0.88371430631204
H           3.43441678995820    0.75379155388729   -1.26027493526690
H           2.34342982085318    1.20284981287824   -0.00935228449314
H           3.49604122882867    2.31346174816097   -0.65273863394967
