    26
        -50.47225159  Gyration_radius:  2.43132012356 Dipole_moment: 4.200
 S          -0.09330073082637    0.02533542598496    1.23934515836341
O           0.58025680776388   -1.08841608892379    0.55580837320319
O           0.81612088964748    1.12308599478356    1.50213010201014
O          -1.25482189480059    0.45028684907984    0.45963528507247
O          -0.57662984404738   -0.48629964022191    2.61794042784530
H          -1.00498912139467   -1.37628249137234    2.51873985976983
H          -0.98426143934709    2.68062312677149   -0.15522146787219
O          -0.07038141025774    2.97633646145339   -0.08975837415160
H           0.29672400229724    2.42076528640680    0.63948340746840
O           2.70942845024657    0.24136748582817   -0.19928610738762
H           2.66241872125905    0.81203664318245    0.57900914557674
H           2.03390274681788   -0.44264874065697    0.00750567062991
O          -0.83665213614322    0.04899801623227   -2.10323864029623
H          -0.85142956877321   -0.90982380478091   -2.17677422645546
H          -1.06728385081092    0.24154218753512   -1.16114960233452
O          -1.59804009227094   -2.21987969474037   -0.34070709807689
H          -0.70618660202334   -1.87771965058928   -0.10206546093067
H          -2.18177411505059   -1.45835112608672   -0.25309310339101
O          -1.56324151060180   -2.88534624484153    2.23634621898003
H          -1.71466511832192   -2.84934561772048    1.26397441457558
H          -0.84331534082390   -3.50419008264779    2.37641443144599
N           1.26988466753688    1.62867090194747   -1.91459652111491
H           1.71158146006792    2.07953404213476   -2.70766229852059
H           0.78501052750574    2.32605332447833   -1.27067678908007
H           0.51398752915343    0.95685569084282   -2.20697500630232
H           1.96765696321118    1.08681175589554   -1.31512778901755
