    26
        -50.44553248  Gyration_radius:  2.48490538203 Dipole_moment: 6.690
 S          -2.06275427229873    1.14912841157426   -0.62977076371891
O          -2.54077612807591   -0.13426068705032   -0.18442066360393
O          -2.78387706561459    2.29887805212112   -0.22458409599431
O          -0.56376187154836    1.28736384071700   -0.14417466742197
O          -1.83280376794057    1.12305971579639   -2.13902532141571
H          -1.62604524234635    0.13395284303260   -2.35353268053571
H          -0.45610260338016    1.16704925355146    0.85039221903286
O           0.02223615344999    0.96608196822781    2.33288691071487
H           0.11590373410654    1.81702246262210    2.76445996700588
O           1.89597532125208    0.78103614796507   -1.18828047955125
H           1.99881172843683    1.03687744481161   -2.10675195964395
H           1.02650009889941    1.11128396330303   -0.90121152032590
O          -1.39053625918956   -1.33260452933667   -2.40976027366742
H          -0.52068698244177   -1.56677871797668   -1.97709978882166
H          -2.06964630982376   -1.62134542421547   -1.79029495174361
O           0.77354817429725   -1.76913238808511   -0.99406918870088
H           1.29276522614984   -0.95039507396415   -1.03036714402105
H           0.31937529733403   -1.78051190108939   -0.12673846193081
O          -0.75384330349718   -1.54590029471394    1.22893779715408
H          -1.51536403856571   -1.15090348189541    0.76459527719836
H          -0.57842984666946   -0.95718596483703    1.96836723523077
N           2.35938703708802   -0.04633822216403    1.65208619752957
H           2.22855563290567   -1.04982864117045    1.59900974602927
H           0.95222572271305    0.61240419917836    2.14968981535152
H           3.20167015371381    0.13070513892364    2.18445045236859
H           2.50767340104906    0.29034190467178    0.70520634347913
