    26
        -50.44061939  Gyration_radius:  2.60249221987 Dipole_moment: 6.792
 S           0.37874441712023    2.11723616005111    1.34442523871695
O           0.65399883864166    1.53617066127433    0.05300487823965
O           0.25715509714153    3.52422912816451    1.40530810268097
O          -0.91230074302679    1.41992514032819    1.89919377929344
O           1.44624596285070    1.64138099515275    2.35304597145207
H           1.30865453097907    0.66267659763374    2.48173958071909
H          -1.35622586617164    0.88193980798202    1.19046424716821
O          -0.21797254383002   -2.02089400771500    0.53162633699958
H          -0.30540188083560   -2.95064268206539    0.31896814728031
O          -1.10601916300693    1.21646745909034   -2.01510246661604
H          -1.72934314164367    0.74501508532460   -1.45052476962865
H          -0.39661967069109    1.49203468919485   -1.41143998101229
O           0.13085393900623   -0.64712061140804   -3.52377876705301
H          -0.38897895846337    0.03564179965592   -3.04299889104034
H           0.37154677385554   -0.24822066304224   -4.36058139472633
O           0.76164492477355   -0.83107116983667    2.73254426533082
H           0.44767607356375   -1.31292253047479    1.93594021887106
H          -0.01092458564528   -0.67567053045572    3.28074691974882
O          -2.09527292892609   -0.20461759536277    0.23271234470666
H          -2.90066077409076   -0.53478892257630    0.63529611050801
H          -1.42452433466179   -0.93537540669554    0.27328875812743
N           1.50194268125361   -0.98041582036954   -1.02335936869197
H           1.43953387093441   -0.01010982210258   -0.72089867702233
H           1.16230493709407   -1.02062829640371   -1.98519963481493
H           2.47176567865175   -1.26479475049968   -1.00440596846949
H           0.51217686512661   -1.63544470485181   -0.13001496076924
