    26
        -50.44840764  Gyration_radius:  2.46543515273 Dipole_moment: 5.048
 S           1.09485774500315   -1.94656154123133    0.21940725180305
O           1.70136059926868   -0.64274539561659    0.03993927489549
O           1.97640078063524   -3.03998502693076    0.38721276877023
O           0.12393996536840   -1.83714265190353    1.43266676347203
O           0.15742268356847   -2.22016427117864   -0.96657096808955
H          -0.62894938573815   -1.54532001820678   -0.96454229385586
H           0.10023452505290   -0.89788829650384    1.78172835319306
O          -0.07655852190790    0.54404797106519    2.43279239739455
H           0.50999847855332    0.62090974855830    3.18678697388243
O           1.34954956291008   -0.05781047299852   -2.53259041326556
H           0.99414647384094   -0.88738506277499   -2.86178724202166
H           1.62657738838353   -0.24552803296836   -1.61303310691249
O          -2.52456694698681   -0.42951231488954    1.61160914692035
H          -2.39365671193855   -1.33889166357982    1.89103428607572
H          -1.82328857299418    0.08500293148634    2.03869220724437
O          -0.57761966800845    1.68561710180332   -1.96743464317993
H          -1.00597242268455    1.99090667222952   -2.76851380563870
H           0.18784564991640    1.12887201380376   -2.25365431853594
O          -1.71439674067742   -0.54934078527875   -0.94408727256019
H          -1.38612755229068    0.33139866190013   -1.21990441513532
H          -2.10062731470852   -0.45252998679065   -0.04525126784477
N           0.90593459580296    2.05289067569065    0.57633736145327
H           0.25364615452874    2.24384859256369   -0.17756193855795
H           1.45064974129747    2.88854804143811    0.74374054201071
H           0.27010659682576    1.19999468993025    1.72429085492971
H           1.52909290697294    1.31876840038643    0.24869349356858
