    26
        -50.46656155  Gyration_radius:  2.51214347319 Dipole_moment: 5.798
 S           0.74939733757140   -1.03166351677945   -1.07103960754903
O           1.39044602940765    0.13389538821230   -1.64755143978434
O           1.13505990346505   -1.28980547860166    0.30162076661138
O          -0.71698146320514   -0.92096575534345   -1.18504880080315
O           1.16013977468433   -2.29393331622624   -1.89596170841129
H           0.90676433902234   -2.04342470783903   -2.80671308298830
H          -1.39953115317625    0.34334250251686   -0.44723283835057
O          -1.77207903320433    1.04791962716308    0.14312572122078
H          -2.72071523153993    0.90555225913558    0.14751991362454
O           1.40972448678428    2.15714878657082    2.52302367953484
H           1.38285961681307    2.24136086514145    1.53911966175036
H           1.27683419742035    3.03986644931461    2.87093377909124
O           0.85072971616636    2.23527399827548   -0.07065309664776
H          -0.10922753082189    2.16783632771777   -0.12185672313267
H           1.19274175415742    1.53412326883199   -0.65940212933191
O          -1.59324058878218   -2.10406993385635    1.10975596677263
H          -1.34155195262977   -1.75236136143118    0.23777964276182
H          -1.12203783264666   -2.93480501123086    1.18696440758587
O           0.15646596244640   -0.80453884223148   -3.83019081648247
H          -0.67810973259349   -0.78764683007774   -3.34866083202378
H           0.71970528795606   -0.15817389058579   -3.37440786526661
N          -0.18201865427133    0.06710627733129    2.11469801299308
H           0.42140598704587    0.82209391650666    2.51556783319899
H          -0.92000498553337    0.49239189250215    1.50989501682242
H           0.40920750840961   -0.52116776373719    1.45376331071196
H          -0.60598374301192   -0.54535515132833    2.80495121805419
