    26
        -50.47006544  Gyration_radius:  2.43508944549 Dipole_moment: 3.759
 S           1.16977552075595   -0.76825329962114    1.68952254571685
O           2.46699003047684   -0.14140316760256    1.64044327609920
O           1.01392356539815   -1.87688109471179    0.77043818758073
O           1.04114774259067   -1.37399088637833    3.15787989579729
O           0.06028035201273    0.17743942064165    1.58949586738134
H           0.26392818823114    1.64442801804364    0.95542683916804
H           1.94185758508945   -1.62624994777100    3.33064297975051
O           0.29188801003440    2.51249471811013    0.47532706988984
H           0.34530009395126    3.18726008676422    1.15299073768248
O           1.98244457506817    0.63112004460582   -0.85509668490258
H           2.27904157805195    0.23301710659987   -0.01710864413512
H           1.68780074207632    1.51885239223728   -0.61940266511353
O          -2.27616357920869   -0.42818591948763    0.50397329155650
H          -2.03386358801320   -1.23041309872626    0.01047133712196
H          -1.49847307039132   -0.25608650718208    1.07846077639321
O           0.04296583981622   -0.24826805479742   -2.46953881678948
H          -0.26164157146664   -1.08258977135822   -2.06415845695392
H           0.87705956855184   -0.02468321014871   -2.00046495360623
O          -0.87235008054503   -2.29632440944957   -0.92077464897768
H          -0.84609437007870   -3.23216665097157   -1.12391840195618
H          -0.13991077068942   -2.14346362123521   -0.26234352888021
N          -1.52842857530916    1.39495862967872   -1.21922475845532
H          -1.98580362150116    0.71396137543039   -0.52890905577516
H          -2.21113668199368    1.91921028883073   -1.75315974564697
H          -0.90986715611407    2.01851266648754   -0.66935971279866
H          -0.90067034678828    0.77770488203028   -1.85161274013654
