    26
        -50.47296453  Gyration_radius:  2.41768226814 Dipole_moment: 3.131
 S          -0.65254651451481    1.45968755541932   -0.90149385399050
O           0.78185356438623    1.52308360125352   -0.64650551319803
O          -1.04548234234376    0.31489990994577   -1.68157750956523
O          -1.40649548716400    1.57294789049324    0.34491708957130
O          -1.00039300820427    2.74456100704396   -1.74797129163971
H          -0.64332421669368    3.43018596016885   -1.19461982147322
H          -2.08799077170158    0.06980062490857    0.48811650172111
O          -2.35122103430309   -0.87729896461707    0.45838578298887
H          -2.59274428615504   -1.01491295459184   -0.46236746460673
O          -0.55764736414840    1.21806598163872    2.85742437439132
H          -1.30296054428774    0.81674938701676    3.30726553731951
H          -0.88862624615870    1.48213794419938    1.97599977669429
O           1.44181407628801    0.05451432656560    1.47476737504210
H           0.90170724472533    0.45142246247223    2.18491863701705
H           1.30205363156121    0.65366508133078    0.71121396855090
O           2.63778483014094   -0.12525842635277   -1.66335991794530
H           3.22037196393631   -0.22118990580904   -0.90704514104805
H           2.00283139664858    0.57586864506345   -1.41869680658068
O           0.56335634605386   -1.80527002163525   -1.95747037371883
H          -0.08671089516181   -1.08428457269436   -2.07451342831575
H           1.43054015749885   -1.35228171960089   -2.01530043204315
N           0.06941880189895   -2.00612452597316    0.59341385866405
H           0.18424833241287   -2.89955123546465    1.05764767807576
H           0.68887845783234   -1.25224301555035    1.02578315020576
H           0.31835277221161   -2.06185180604435   -0.45294116114968
H          -0.92706886475885   -1.66732322918924    0.64400897503273
