    26
        -50.46463543  Gyration_radius:  2.67442009914 Dipole_moment: 5.463
 S          -0.43923759736571   -0.72154103483636    2.28801722967848
O          -1.80540683226859   -1.17482030269168    2.19544134943695
O           0.47806616102143   -1.50423517949834    1.46588060852182
O          -0.27754625908626    0.70857626212925    2.05894909785270
O           0.00250244646081   -0.95612451494244    3.79570091012837
H          -0.48537320735690   -1.74505055981017    4.00538073826034
H          -1.01325269942649    1.42860067902406    0.82404669774999
O          -1.39480720174568    1.84237843877287    0.00678958534918
H          -1.81077253051964    2.65655272447692    0.29280659468741
O           2.13677776835222    0.46749657729251    0.96454490677155
H           1.80398327784781   -0.43911856245627    1.12669648607243
H           1.55285654009100    0.98644054328945    1.53804891101776
O          -2.60337674869333   -0.69794886291350   -0.31400600647075
H          -2.47488392771961   -0.95006684068620    0.62187178720719
H          -2.42418875339027    0.25193393707090   -0.34677839091259
O           2.01473129098372    0.80978708970805   -3.79163758015213
H           1.62043836065032    0.13067031093179   -4.34428898922798
H           2.96511028013034    0.67773265571808   -3.80780676228998
O          -0.28370804586094   -1.71011469911382   -1.08772229164996
H           0.03610040516809   -1.86095089672933   -0.17553886809754
H          -1.23919448042319   -1.49254728502554   -0.96872103774299
N           0.73693042255502    0.68209423977604   -1.29179294360778
H           1.18574294456961    0.91890074837819   -2.18363478887648
H           1.42223168068766    0.69039384817831   -0.48740210304435
H          -0.03813092742794    1.31875947530271   -1.06043407434389
H           0.33440764273404   -0.31779879130455   -1.32441108628992
