    26
        -50.44061946  Gyration_radius:  2.60255756099 Dipole_moment: 6.803
 S          -0.49123457092930   -2.36850051669153   -0.76472309916759
O           0.00343876775714   -1.10329070967946   -1.25033482381185
O          -0.00524679682972   -3.53580753065150   -1.39650678992209
O          -0.21423377979160   -2.41108005770890    0.77863327012814
O          -2.03451568268133   -2.35830922485529   -0.80303118703279
H          -2.33632514516268   -1.68804860907782   -0.13012099945989
H           0.38842592815189   -1.66826611986114    1.05079875806009
O          -0.84677883827232    1.24200624828824    1.46788510045016
H          -0.93700395268292    2.07961327969656    1.92351203408433
O           1.18369263399994   -0.41132202060600    1.70676120636172
H           1.34851272787001   -0.55143407164128    2.64108904115208
H           0.47703953490492    0.28204625498513    1.63326047888942
O           2.47467457056468   -0.02830392966554   -0.79107154265701
H           2.36770843150255   -0.11305115699179    0.16331124221979
H           1.67811559927276   -0.44444849060764   -1.15985825616531
O           2.07752126530325    2.57383191373312   -1.38274352562080
H           2.31548734676030    1.64754636223082   -1.15268455258708
H           2.60895460905261    2.79587503917093   -2.14800986655702
O          -2.60555015316761   -0.76681262818253    1.16367585916593
H          -2.40482835164914   -1.36658408126612    1.88586415414212
H          -2.01272598105597    0.00924210454033    1.27096900752231
N          -0.62915594229412    1.68284832548075   -1.02580700781159
H          -1.38075522575814    2.10073658864430   -1.55709120738991
H          -0.48712823867266    0.72957164394543   -1.35431055272835
H           0.23307551980132    2.19788903642241   -1.20826923192517
H          -0.77116431599645    1.47405236034794    0.43880250065969
