    26
        -50.45954275  Gyration_radius:  2.46050744779 Dipole_moment: 8.209
 S           0.70984249671986    1.92229647431188    0.07422974634256
O           0.18648681162975    1.33360028027693    1.32268482596676
O           0.44157324816906    3.31162682553958   -0.05733933481323
O           2.26352330210682    1.69532930229427    0.11979334906296
O           0.23629557677404    1.10636233958507   -1.06183157201799
H          -0.96157467874158    0.14759636027076   -1.42829509294536
H           2.36001837341994    0.72873297730743    0.05285416227165
O          -1.70233364650517   -0.48115388688466   -1.65168244145024
H          -2.42822041516047    0.08312677058888   -1.92346996070275
O          -2.36128343766455    1.11638512827149    1.66606174617056
H          -2.55211972981262    1.50627952378896    2.52024397356445
H          -1.40357384577944    1.32517745636191    1.49024392404395
O           2.63432484687780   -0.96897913329796   -0.28426682682879
H           2.26576289550330   -0.93347194454013   -1.20511601538989
H           3.58343780480664   -1.06901919175123   -0.37345071358438
O           1.49854959070385   -0.56359491528551   -2.61542620539554
H           0.76817053983899   -1.11613682647861   -2.90257787130655
H           1.07645593768308    0.20818568342379   -2.16937396826701
O           0.63363000840928   -1.19771800554618    1.61264574640003
H           0.54484707507578   -0.20826306844219    1.62093688212691
H           1.35681234093070   -1.36813641929676    0.99268360946398
N          -1.85169053148533   -1.34965176270265    0.84586466417326
H          -1.85896611877974   -1.15392697169365   -0.19165089728334
H          -0.82762820603811   -1.44348816012987    1.15450620682065
H          -2.20803493805543   -0.46901536450829    1.29967680005306
H          -2.40430529064504   -2.16214346139186    1.09205525358075
