    26
        -50.47051942  Gyration_radius:  2.47599352032 Dipole_moment: 3.540
 S           0.99037127209414    0.77450742598778    0.89117424944014
O           0.64632358094926    1.90458714910497    0.03493560308563
O          -0.02059350752409    0.50514045373721    1.89338158068396
O           1.26162238892882   -0.40979557161447    0.06796621781610
O           2.30977178428737    1.11883431807212    1.65369799297995
H           2.95629300121432    1.30453146393884    0.94495191802919
H          -1.49534703252261    1.01945375553869    1.19927084586652
O          -2.14487933664636    1.21576536725050    0.49265576434884
H          -1.84002265277947    2.03867883872842    0.10020926761514
O          -1.89812066374280   -3.01238899546419    0.26770106698732
H          -1.17107133934439   -2.84858254688631    0.91833763452290
H          -2.71071912088022   -3.02462285588131    0.77591524292067
O           3.16267683712084    1.42537740598043   -0.83972254862467
H           2.32907446461886    1.91923671000311   -0.82578204608422
H           2.91048201420587    0.51339412412072   -1.02397188401188
O           0.07773419171936   -2.18717003321438    1.84672487741596
H           0.83784884100915   -2.12966403721994    1.25729937208421
H          -0.08355718197942   -1.25941522067399    2.09795955005310
O          -0.33694747963742    1.34506219063063   -2.40935352400350
H           0.01835573936053    1.58308075159676   -1.53037720808689
H          -0.06032056580556    2.04285727817534   -3.00449979268584
N          -1.16123277108602   -0.78570713159237   -0.98407936132092
H          -0.16542723402814   -0.72317802809955   -0.65118716098742
H          -1.17527581981743   -0.59767743318460   -1.98511915878292
H          -1.55179355509096   -1.71814607604189   -0.69951571615447
H          -1.68524584462104   -0.01415931297511   -0.48857276312026
