    26
        -50.47078905  Gyration_radius:  2.50474649776 Dipole_moment: 3.435
 S           0.62522983985589   -1.45679344595697    0.48245335961306
O           0.78881916738625   -0.56452050244587    1.63415673358616
O          -0.66176435596221   -2.10436707480339    0.46005182539888
O           0.86560146337714   -0.69404479822285   -0.75272537795039
O           1.72049595241826   -2.56073700214583    0.56051178248502
H           2.55576503935032   -2.06618378106864    0.67838915813279
H          -0.77633506804822    0.01807387111171    1.79848597303985
O          -1.70929416682967    0.28407445066065    1.64658472214739
H          -2.21001819458461   -0.53052026334477    1.74369243540017
O           1.53720368662928    1.73770908907897    0.05010713678962
H           1.40479561084456    0.85028617473669   -0.34643210241344
H           1.27074293896344    1.63325466757618    0.96874462394668
O          -0.36749920905884    3.04499462523567   -1.36897069971637
H           0.43032577516473    2.68679042261647   -0.92115297593990
H          -0.53524885203830    3.90505531961034   -0.98238009738629
O           3.39175885146650   -0.56269398686166    1.08457998817969
H           2.55746159807873   -0.37404717665484    1.54971830261033
H           3.49724757441529    0.13426781586679    0.43019200365390
O          -2.61965048772008   -1.75927038604278   -1.35486887032771
H          -2.79132449397784   -2.57909830209024   -1.81882941638667
H          -1.93804932905876   -1.96910500896035   -0.68404442574825
N          -1.42900393813907    0.60610538642184   -0.99491427834329
H          -2.13440107658325    0.05709879471804   -1.49890689645409
H          -0.51809043678508    0.08400762169351   -1.06566067709936
H          -1.28311657342306    1.57778045797789   -1.32993406798918
H          -1.67165130569436    0.60188304126960    0.03115185066502
