    26
        -50.46960853  Gyration_radius:  2.44488664228 Dipole_moment: 5.144
 S          -1.43867352383570    0.54958364183684    0.22240749559096
O          -1.17997284749396    1.58725629713546   -0.76410543977601
O          -1.66456372074109   -0.74547957515458   -0.36636748747883
O          -0.32905290758306    0.51120838434385    1.20402159751106
O          -2.71941302229057    0.93351195875588    1.02052779437310
H          -2.45359908997866    1.72540055754195    1.52773870112075
H           1.18806974209788    0.53050817691842    0.57141420146753
O           2.08393333752809    0.52592164752273    0.15475685583857
H           2.67505945418313    0.93994611646707    0.78531026263381
O          -1.28165502116583    2.60161638966933    2.49216014779313
H          -0.69450752771170    1.91691201893352    2.11686813397607
H          -1.34365193140829    2.42726774640224    3.43418099374636
O           1.72809958753978   -2.26319012027880   -0.30285434445099
H           2.09584178982694   -1.38529506465568   -0.13444332936709
H           1.10056646780226   -2.42142944487538    0.43300693645984
O           0.01228036837034   -1.70191045947297   -2.23393438323246
H          -0.75951530066660   -1.51792276784777   -1.66370584133999
H           0.68679219630486   -2.09207047304800   -1.62048998523398
O          -0.25074744026237   -2.17502185123423    1.54943869197488
H          -0.24560662631963   -1.20350861422989    1.58167044135359
H          -1.01845918128028   -2.38333845904130    1.00782326788400
N           0.78393893939466    0.74854743697407   -2.23376961349395
H          -0.05128526495525    1.19056156850841   -1.74009672704502
H           1.01082481734313    1.22670665884272   -3.09815692203271
H           1.56160565808962    0.77560530820915   -1.55845952486595
H           0.50369103724979   -0.30138710824617   -2.38494190339283
