    26
        -50.46977831  Gyration_radius:  2.43918369134 Dipole_moment: 5.751
 S          -0.00713886639154   -1.49281921194243    1.13145721392817
O          -0.91238292326701   -1.20850190693302    2.20936276000308
O          -0.66367199329937   -1.63132753880159   -0.16592914766261
O           1.11672007804601   -0.56574294529348    1.03408835797346
O           0.64122879717902   -2.90130398249560    1.45633378046944
H          -0.03141925084613   -3.26946231505961    2.01772780595435
H           0.71084794501068    1.02943973461509    1.04615262497338
O           0.44773264765878    1.97677942024882    0.99819799575167
H           1.01136835587621    2.44973217398400    1.61194123581765
O           2.97694127166267   -0.69783203498666   -0.82559824496774
H           2.38115004668372   -0.75485317028351   -0.04504929022102
H           3.66395922281023   -0.07046580806063   -0.59546682695117
O          -2.14477042022252    1.17414970390960    1.77938973934680
H          -1.82749141802980    0.30679962275556    2.08577436997836
H          -1.34585608913600    1.69403615738448    1.61230813428017
O          -0.48782898228582    1.85361049501747   -1.60652795392663
H          -1.36191267363561    1.43081540261229   -1.38838536674443
H          -0.13227196973424    2.13058543097563   -0.74718023690154
O          -2.48480070485860    0.37348914413245   -0.75456216745261
H          -2.02471855036980   -0.46592483949311   -0.60122072359070
H          -2.61879999643353    0.74350375312586    0.14469129602805
N           0.63183517383722   -0.42719658447074   -2.10981253660108
H           0.10952830640777   -1.00492463882993   -1.39491228458502
H           0.47287029324923   -0.78550248607518   -3.04487602562755
H           0.24106639019342    0.58061069822300   -1.99988475207800
H           1.63781531988951   -0.46769426426379   -1.84801975719124
