    26
        -50.46340241  Gyration_radius:  2.57424046103 Dipole_moment: 3.033
 S          -0.37183586770694   -1.72373695677449    1.42087714425740
O           0.48296188875665   -1.58060604169806    0.24408024934505
O          -1.10829341120154   -2.94938112655998    1.48563370221188
O           0.64425822718516   -1.74921428085660    2.66222968876877
O          -1.18399975939236   -0.52373393301645    1.60776093237407
H          -1.02205345758190    0.98148686247221    1.03014263576287
H           0.37156327494285   -2.52006646625739    3.15092869947673
O          -1.02915213439007    1.81315716794258    0.49167813200796
H          -1.80468660300423    2.30104302328892    0.77232888008297
O           1.62868863079097    2.23854534575426   -0.42923685194475
H           0.74474014207972    2.32635581262728   -0.04890417024024
H           2.06096712442002    1.55047830022979    0.11099886345517
O           2.31767847038880    0.13689501516895    1.15424435407186
H           2.23881194891191    0.03517020388846    2.10430533748206
H           1.75185167614435   -0.56011958425820    0.77451854618732
O           1.30749132942728    1.35090104613702   -2.90549383692612
H           1.34196805799446    2.08828942979407   -3.51512281256469
H           1.57191845845737    1.70874350532519   -2.01943380775503
O          -2.50013576398329   -1.55306471929068   -0.53580942770533
H          -2.42129817708925   -2.48894189013919   -0.33215719030144
H          -2.25060745572885   -1.11838018600080    0.29369496662352
N          -0.56156181424476    0.05232471452981   -1.53843953112036
H           0.06654219479557    0.41255274940591   -2.29114677891253
H          -0.03587604848239   -0.61820746418340   -0.91252445707972
H          -0.84540637543389    0.84389928484309   -0.92708636591534
H          -1.39453454603192   -0.45438983236671   -1.84806689161234
