    26
        -50.45879604  Gyration_radius:  2.81382952926 Dipole_moment: 2.952
 S           1.93214711781029    0.73471427281413   -2.02216598591496
O           2.74052357808971    1.51538383011425   -1.12064849136846
O           1.98965280123816   -0.69736817002982   -1.74986804648380
O           0.54423591996236    1.19849952513758   -2.09600071118837
O           2.52752716602377    0.95191292287791   -3.48143222526875
H           3.45953548593892    1.06568976095923   -3.31935465133811
H          -0.80794614505568    0.30888412711696   -1.85328181417020
O          -1.57042183073179   -0.24350267301384   -1.54918280840855
H          -2.04017330802444   -0.50970943392738   -2.33990544771445
O           0.07337193482022   -2.37154506722525    2.49107214645820
H          -0.18346868160955   -3.29430105600846    2.50343766651446
H          -0.73916887969990   -1.85337529681354    2.69379003430982
O          -2.12379317904761    1.03489780383869    0.86645349094339
H          -2.15319633685561    0.66258286077053   -0.02855048209033
H          -1.32281067766823    1.57363985326117    0.89780881462129
O          -2.12733018717894   -0.88508357819862    2.73469584090513
H          -2.36718556637192   -0.44778085381681    3.55243156259157
H          -2.17566198866332   -0.19193388820318    2.03590836641032
O           0.54828028310876    1.83666916776626    0.45990801269748
H           0.44030488471689    1.79947692537508   -0.51526386840032
H           1.47384809861467    2.08792212537681    0.55747184518933
N           0.38020378850009   -0.87839376489963    0.27553210845251
H           0.45394015424599    0.10491313744912    0.61325866793846
H          -0.52167166685876   -0.96682133705637   -0.21410816683208
H           1.13137968187358   -0.98651089687374   -0.46528333776098
H           0.43787756271047   -1.54886030668234    1.07327747976581
