    26
        -50.46949231  Gyration_radius:  2.48096503382 Dipole_moment: 2.845
 S          -0.65225982072760   -1.28782571454729   -0.52269489009579
O           0.68831494266035   -1.21120407166542    0.07414257047953
O          -1.66309548079919   -1.57303753833060    0.46400033408753
O          -0.93150776862051   -0.04590430931740   -1.26071091973818
O          -0.63898995928807   -2.44211576245014   -1.56170979655746
H          -0.05393650610243   -2.12671041863867   -2.29076605440783
H          -1.79203726606403    0.86283623261143   -0.12902009116903
O          -2.08508299662910    1.21970010703159    0.73726030321341
H          -2.62975898074737    0.51948202836543    1.11000701790401
O          -0.98699729059396   -1.15800151517695    3.03941555415012
H          -1.24515425871032   -1.36686209064992    2.11913309632103
H          -1.19505230793696   -1.94348798557776    3.54633990210701
O           1.55242046739356    0.69849245670184   -1.52524172170614
H           1.75834310707106   -0.05065592018952   -0.94038316203767
H           0.56840980706061    0.67760528415820   -1.52441148729953
O           1.93301358524083    2.52975108806769    0.44570772160312
H           1.92802305512229    1.95287296103583   -0.34945112284817
H           1.62302132574822    3.38965903936502    0.15809411634976
O           0.80412780744493   -1.20855199743682   -3.40761638167014
H           1.29437215296399   -0.51967684913791   -2.92267517551945
H           0.10781511114251   -0.75262530883313   -3.88682706815235
N           0.34073629174925    0.78736556301698    1.74999995412683
H          -0.63719922547041    1.07882998428913    1.46893088686771
H           1.02105866405069    1.54014688365839    1.51871627438664
H           0.32606000077344    0.49552008767871    2.72636002307601
H           0.56535554328813   -0.06560222402923    1.16340010651636
