    26
        -50.46853840  Gyration_radius:  2.55780199258 Dipole_moment: 1.264
 S           0.36478289728840   -1.81729311175622   -0.91365255443206
O           0.15688530655497   -0.50147614619239   -1.51708229334727
O          -0.88775223923301   -2.46440082614778   -0.59652237910190
O           1.07760835186883   -2.70595720106899   -2.01288377234033
O           1.28881534282512   -1.74502039569656    0.20302669288740
H           2.18602468124207   -0.34303477328312    0.41518398987633
H           0.35175677092769   -2.91209480412617   -2.59215499482536
O           2.62166385161000    0.50470517349293    0.65790803686996
H           3.55885192008974    0.37221057925620    0.50918396344580
O           0.36366972632347   -0.33065402381087    2.29016630883867
H           0.63618669991231   -1.06432455488166    1.70582857310906
H           1.13472978824859    0.24692411082933    2.32183662504134
O           1.26611241682057    2.00438120910447   -1.20645601526007
H           1.83109355818951    1.66245096023939   -0.49047768030250
H           0.88828046634955    1.20570928265114   -1.60517652453450
O          -0.82827044101788    3.20232978582318   -0.08977733878850
H          -0.51587221214290    3.91522767473969    0.46789048525549
H          -0.04198511473845    2.88009971293525   -0.59745402256379
O          -3.14796466046594   -1.34012205991208    0.24356400063091
H          -3.47547648686713   -1.88775524098388    0.95867991565695
H          -2.38703881119820   -1.82837672950013   -0.13960782996311
N          -1.30793868575611    0.60729705671017    0.40813368040852
H          -2.22454176959550    0.12106189987495    0.42507877505067
H          -0.78458304769787    0.23405947830033   -0.42048149674531
H          -1.36892343288882    1.64260968564270    0.31574280528630
H          -0.75611489667103    0.34144327774066    1.25950302981539
