    26
        -50.46431891  Gyration_radius:  2.5437489393 Dipole_moment: 2.660
 S          -0.13083120138395   -2.16546869423235    0.41079548309325
O           1.16551773206391   -1.67885609218621   -0.05709308584466
O          -0.66260525514191   -3.24616770191439   -0.36455244879981
O           0.13740697521087   -2.73400371545589    1.88897423024527
O          -1.05848768148602   -1.06271981578712    0.62844050816857
H          -0.48159486793940   -0.23405440040248    1.93017008362078
H           0.35618138420101   -3.64819035879461    1.73661178969307
O          -0.03953070537785    0.32747577962158    2.60569706177337
H           0.30753884618139   -0.28755183547332    3.25378493469271
O           1.52550333274304    0.86780683492113    0.47433108386232
H           1.57221771260500   -0.09477263763107    0.27052758449096
H           1.10268493907882    0.90081680440877    1.35547295764275
O          -2.54496809599313    1.14950283998996    0.44404910851950
H          -2.33184545908317    1.54473009252468    1.29337021004181
H          -2.25489181429311    0.22185762053404    0.51625873935599
O           1.75142776837486    2.89382893065509   -1.54862187312837
H           2.58087106242278    3.25060255340420   -1.86720086241916
H           1.96736496989002    2.31909051018630   -0.80082860613788
O          -0.25497460552390   -1.22541334553235   -2.25294809314453
H           0.47085536641781   -1.42515898563037   -1.63395771702569
H          -0.88134349859445   -1.94005887770186   -2.09787680876987
N          -0.47829504769367    1.27213116762700   -1.25877226513814
H          -1.37435135985994    1.41553090620563   -0.73966728572950
H          -0.21514085142498    2.05552814857721   -1.85478706325262
H           0.29404569646519    1.15170169189349   -0.54237332388052
H          -0.52275534180469    0.37181257018469   -1.78980432195001
