    26
        -50.46519626  Gyration_radius:  2.68363208084 Dipole_moment: 2.382
 S          -0.43562936851174   -2.10783284009500    1.05006540129341
O           0.72693834204531   -1.37979814413490    0.53189799090504
O          -0.89983948543801   -3.11699498362672    0.12617791812499
O           0.07057888441894   -2.87166173120502    2.34543658729588
O          -1.47018923596954   -1.19556257588144    1.49446528583272
H          -1.29680541696132    0.40610667257134    1.56184439063210
H           0.54238535000964   -3.61718242308231    1.98642964395818
O          -1.17132136645231    1.38398448996911    1.45124723537127
H          -1.77816491678073    1.80224122328174    2.06293070417144
O           2.62790246179300    2.18874539760646   -0.70840918186655
H           2.30539771960038    1.71837249975403    0.09953127444229
H           2.86867379495412    3.07025188154944   -0.42195412695317
O           1.59450926861654    1.01470000244479    1.44558888030261
H           0.69682027424694    1.35030702838732    1.59169297556740
H           1.47263274749058    0.07455778051366    1.22373679803313
O           1.04582344554346    1.63136778920851   -2.76175173773764
H           1.66552300442222    1.92077898643605   -2.04985035098547
H           1.57054046307949    1.10993090943603   -3.37112068463306
O          -2.46211835251880   -1.49381665699536   -1.23439895081671
H          -1.91491733417655   -2.21919175483470   -0.85739973236244
H          -3.11320185657834   -1.30848059898918   -0.55319287970243
N          -0.53269360580402    0.34392126340869   -1.02546787225601
H          -0.85327657549726    1.03834468428609   -0.33787232667186
H          -0.02269120315832    0.81512525187310   -1.81232922885127
H           0.10790991312896   -0.31239041345437   -0.51070033816240
H          -1.34478695138331   -0.24582374846134   -1.32659768493365
