    26
        -50.47163236  Gyration_radius:  2.41180321936 Dipole_moment: 2.537
 S           1.84671452808269    0.01955367202489    0.64270774466486
O           1.63310727144310    1.14649757537891    1.52323785761895
O           1.50779786264436   -1.26106162437214    1.24153204322774
O           1.22223874695287    0.18892899632889   -0.65979894503291
O           3.40689082769107   -0.02443382134593    0.34203426282911
H           3.79448638495155    0.05762588290857    1.20750577861484
H           0.91432977938035   -2.37320211694573   -1.41397703234565
O           0.31194753566049   -2.53866063699999   -0.68523700511081
H           0.75448214713385   -2.13441066380687    0.10038945933102
O          -0.30309342686739    2.32318895413637   -0.15496227596252
H           0.32431154650660    1.58645168282939   -0.30004544083268
H           0.07517618749367    2.81110158450950    0.58045492536590
O          -0.43437254094479   -0.05930265510008    2.69332134916119
H          -0.01720875861246   -0.90280155553070    2.47884534025480
H           0.26427473924043    0.58421956033772    2.47792825583782
O          -0.47466666501625    0.78558472012986   -2.68285378661500
H          -0.70570869546405    1.66392262815657   -2.36249948890723
H           0.32640200430023    0.54920543719860   -2.18485126039759
O          -2.19358048372734    0.64641389610790    0.82695404049256
H          -1.67271615701339    1.40156228437367    0.48435366324487
H          -1.69430837517476    0.34490963013074    1.62110434371486
N          -1.79869366900008   -0.98085783994679   -1.16412987897036
H          -2.02904967993089   -0.38019224215932   -0.29736198060795
H          -1.02148953943805   -1.65714787837138   -0.92658504198500
H          -2.61947222273546   -1.47362565595338   -1.49739328863216
H          -1.41779933748864   -0.32346980394977   -1.89067362902169
