    26
        -50.46101423  Gyration_radius:  2.48137357629 Dipole_moment: 5.385
 S           1.07002469762875   -0.74388846885204   -1.22679300930541
O           1.23963268063090    0.10660709218923   -0.02331182947982
O           2.00454563799790   -1.82214079659104   -1.27750591637751
O          -0.33323111576403   -1.14855073799576   -1.32052363388018
O           1.33235140205974    0.21038860861034   -2.44728908541875
H           0.53217771434659    0.77648899289422   -2.48782841080500
H           1.62381882318575   -2.67347865724531    0.65278268878730
O           1.20439053123246   -2.15605643130298    1.34987082961777
H           1.26009742483181   -1.24917560879292    0.99599457425809
O          -1.37407939775199   -2.66657331360620    1.76958006031356
H          -0.39525108045848   -2.53355044383710    1.74469506125066
H          -1.54982499801331   -3.37645535924878    1.14889854444624
O          -0.37516362168828    1.50661427151866    1.99756438129439
H           0.37021052890622    0.93544506323597    2.20652080393752
H          -0.03745872122299    2.13669855674298    1.33985295193599
O           0.91463930130530    2.63190249319745   -0.18455652603659
H           1.76503393236550    3.06249275466897   -0.28360569121838
H           1.10762142027403    1.64799899140857   -0.16010649136862
O          -0.65582709205532    1.99155355418738   -2.27707413794626
H          -0.60470704443574    2.62671574885384   -2.99392923148600
H          -0.20892958763855    2.39467182547481   -1.50504039980024
N          -1.80493534746544   -0.31131992113267    0.60224239589516
H          -2.73689068579564   -0.02689971839079    0.32324357044724
H          -1.32168268946134    0.44601522937848    1.14378861783229
H          -1.81690341557928   -1.19462302535431    1.17445861332345
H          -1.20965927743966   -0.57088068002702   -0.26192874022015
