    26
        -50.46221176  Gyration_radius:  2.47910232145 Dipole_moment: 5.288
 S           1.71504115371221    0.36259393166305    1.19888890484810
O           1.51941680805557    0.61534113700776   -0.22194502682101
O           3.06583224360926    0.39010595694815    1.65483919171350
O           1.01085699228927    1.62882353699380    1.93753725105575
O           0.93078226657228   -0.79106981042163    1.62868747617122
H          -0.58774611638189   -0.32157947556158    1.90884052982512
H           1.77048656618665    1.86165383079112    2.45887459071061
O          -1.47082425645342    0.11157079754984    2.01355485467823
H          -1.28141262758817    0.93179967910558    2.47431368613916
O           1.30004748081499   -0.54835605072871   -2.64434812538270
H           1.44277432021414   -0.06255132070986   -1.81090785553785
H           1.92679953825790   -1.27423189141090   -2.63355471802378
O          -0.23339132430400    2.50660227060014   -0.56763222373240
H          -0.17530042387615    2.97176581031835    0.26979787568453
H           0.50491455119828    1.85191841395319   -0.54084930891080
O          -1.09480612496708   -1.46287890450567   -1.90956722319683
H          -0.30393901208225   -1.10537726271316   -2.37333090588415
H          -0.70882328263075   -2.06162325465591   -1.23615985035550
O           0.25239451887172   -2.77355271630686    0.00545471327237
H           0.57706430847059   -2.04285538390655    0.57272811818089
H          -0.06450577172164   -3.44992475837614    0.60571301731129
N          -2.04313676198071    0.54011955944979   -0.56337407811864
H          -1.42225247949168    1.37403551727955   -0.71664057109976
H          -3.00368740435502    0.74590718167503   -0.81380948639003
H          -1.66925437858348   -0.29564464110409   -1.15288671594302
H          -1.95733078388601    0.29740783712099    0.45577587978254
