    26
        -50.47026190  Gyration_radius:  2.45475702639 Dipole_moment: 3.198
 S           0.52503287124477   -0.99036417987886    1.43040921027435
O          -0.47603102770750   -1.84476835171531    2.02134765757946
O           1.08162153123839   -1.48538262461255    0.18732397923540
O           0.06418261518690    0.39189907763160    1.28934101565732
O           1.73390891817833   -0.95248991151052    2.46116192697490
H           1.33325851071532   -1.15288183931207    3.30121852689434
H          -1.43934843208607    0.28961967790937    0.38625483609883
O          -2.07677945123749    0.16181343091576   -0.34155626282688
H          -2.42033164470088   -0.74436508049809   -0.20627405585591
O           2.53279377471718    0.90317968504176    0.28865700780103
H           2.86073579109619    0.00256053262046    0.23118446918965
H           1.69474285851142    0.82721710654159    0.77141389671074
O          -0.59136435912252    2.74370527595239   -0.12778962503451
H          -1.47477489798124    2.45044490012763   -0.36757975721584
H          -0.28738534869137    2.12068197042338    0.54726287411710
O           1.32138319077574    1.97477201300081   -1.87087745846633
H           1.98446685496173    1.72169397940540   -1.19605105705851
H           0.66692978984413    2.50402454715009   -1.36976166755458
O          -2.38644539563069   -2.42113895394398    0.27642008856373
H          -3.09783179108465   -2.85172575716904    0.75378530972722
H          -1.65317061175287   -2.31900306360265    0.92117598070757
N           0.01711655854972   -0.27738448417427   -1.91039746959368
H          -0.06060720842954   -0.79056995061537   -2.78096279995682
H           0.56488233372913    0.64879517077070   -2.02491555667445
H          -0.92909333472546   -0.06343237979569   -1.49284402143094
H           0.51210790439433   -0.84690081065539   -1.17794706786237
