    26
        -50.47136737  Gyration_radius:  2.43617270874 Dipole_moment: 4.580
 S           0.69883500654583   -1.33372155274390    0.45587227694025
O           1.20402224858045   -0.54782918193942   -0.69151345362268
O           1.16774209296279   -0.82050362623497    1.71454970528419
O          -0.75484922842796   -1.40882815480667    0.38456677421095
O           1.26790044413172   -2.77647335198692    0.29365057463790
H           1.05737283189063   -3.01683152642624   -0.62806011729275
H          -1.17306108465844   -0.26131604589103    1.56862751444125
O          -1.32243801875053    0.47400884311776    2.19512256102297
H          -0.69452439601607    0.30740406544123    2.90281216088242
O           2.12523369492991    1.57153519303470    1.09749651887543
H           2.49666117016432    1.35622243100970    0.23932399314015
H           1.85170727772120    0.70730459520673    1.46870461498707
O          -0.32460266572713    2.63332221121840    0.93832839655090
H           0.62822935876623    2.45083730425891    1.09812686972830
H          -0.79901127190575    1.99075941598821    1.51054452671669
O           0.94539049487451   -2.57567081244028   -2.33653986640468
H           1.05400692414893   -1.69204930681278   -1.93035040217775
H           1.74372067398615   -2.75238139843343   -2.83892651235360
O          -2.77084253875794   -0.15775515207509   -0.79308401246670
H          -2.15086118346976   -0.82790682350042   -0.43976986236427
H          -3.26051879908017    0.15962896550710   -0.02989546815930
N          -0.59974143387271    1.31700459850556   -1.26788249128247
H          -1.53299411047035    0.83133141510276   -1.21830687585715
H           0.14093430698407    0.58312585013018   -1.12798323561468
H          -0.47715741913629    1.80079904858165   -2.15024013241825
H          -0.52115438549780    1.98798295634877   -0.41517405733024
