    26
        -50.46642038  Gyration_radius:  2.59589246677 Dipole_moment: 5.582
 S          -1.26477552343578    0.08449231142849   -0.13673501879158
O          -0.86650042810544    1.47986754998300   -0.26610520288335
O          -0.19254122427672   -0.68505766997743    0.52656993486900
O          -2.54356546345488   -0.11100606546844    0.49475426520538
O          -1.34177525037744   -0.44954404187398   -1.60652246808878
O          -2.07060191942856   -2.57011652972761    1.27933216065636
H          -1.11718346205295   -2.43697935269583    1.30856494245588
H          -2.42259500153636   -1.65815367475284    1.20561541553603
O           1.49992030098483    0.15288187703746    2.34389692748804
H           0.79661050389974   -0.22711792478417    1.76503123390206
H           2.26174087403077   -0.42082460048251    2.23941683701996
O           1.43836867767935   -0.24224817814504   -1.49379105733084
H           0.92934247746691   -0.47218061248387   -0.68915019258693
H           0.76387208649651   -0.19248343740869   -2.17738098865859
O           2.92388229400792    1.92929845109442   -1.18285923128288
H           2.85002759826868    2.41110447575972   -2.00804784991355
H           2.48206931328856    1.05727976027298   -1.33517259264043
O          -2.63166783407125   -2.66934920586880   -1.29712435960535
H          -1.82511085717597   -1.32378249450810   -1.56202086759309
H          -2.42928655164562   -2.83432982990730   -0.34047124933500
H          -3.56314487067955   -2.43917480642714   -1.32688666102352
N           1.27860054803242    2.35380545380258    0.86688531343108
H           1.49456803374880    1.60668573291985    1.57390686919533
H           1.18321833134297    3.26539927052607    1.29931615515298
H           2.01150788726959    2.34282729520022    0.11398081064386
H           0.35501946001523    2.04870625620301    0.40499688423402
