    26
        -50.47006539  Gyration_radius:  2.43516832869 Dipole_moment: 3.772
 S           0.07228706127196   -0.85890352836529    2.01752326493437
O           1.26600612313005   -0.36571522986281    2.65795439270093
O          -1.03097777775030    0.07954883985943    2.01909657730427
O           0.31021830998414   -1.41105608278532    0.68544169462038
O          -0.39383754241195   -2.11043147491167    2.88696023238990
H          -0.12177962428840   -1.83841598256795    3.75697508464648
H           1.61991296095364   -1.01567359872282   -0.16493356014472
O           2.33926031244719   -0.72994308748812   -0.78608053657393
H           2.99464569614867   -1.42831989197153   -0.76988009081414
O          -0.39100000573848    2.24890387072708   -0.97484778078147
H          -1.22832052997259    1.90173357236128   -0.61193932466037
H           0.26278623390650    2.15419515794328   -0.24743536018196
O          -2.48736949486015    0.83579157351168    0.04380047927209
H          -1.93051976429942    0.54187656972707    0.81639118491888
H          -3.29172933150223    1.18977327771079    0.42516937808889
O           1.48088158587135    1.50260949039321    0.78118137416199
H           2.11249606949180    1.01544183897746    0.23901457039213
H           1.35829540116018    0.95639047985283    1.57825922092820
O          -1.48471916870934   -1.35320607674951   -1.25861000278481
H          -0.89513419147109   -1.55578574087142   -0.49977364871964
H          -2.08966054733721   -0.67401694854753   -0.91448958378155
N           0.31934697194781    0.18182205550519   -2.37320386203130
H          -0.44150972171866   -0.50936380779319   -2.06900239109868
H           0.05851287427608    1.11865785953316   -1.89446077375681
H           1.21248371062311   -0.14682041703008   -1.96268990893136
H           0.37942438885800    0.27090728156342   -3.38042062010427
