    26
        -50.46129547  Gyration_radius:  2.41024485287 Dipole_moment: 6.582
 S           1.21214269883503   -0.34745023921293    1.72181420979777
O           1.79729329842124    0.10411697632496    0.45396610166795
O           2.02849131544417   -1.23160539643244    2.47670331501908
O           0.94489039297778    0.96408919517287    2.55049908870653
O          -0.13640479945663   -0.90191080586496    1.44095314460790
H          -1.37804234938599   -0.00006186386514    1.30886601628624
H           0.62969552164178    1.56926108745604    1.85501572850113
O          -2.14839667336692    0.62391988710273    1.13919567768922
H          -2.72107870033634    0.54774635089194    1.90331404885053
O          -0.26840889860801    2.47596840423124    0.67517185307567
H          -1.07138301744606    1.92046410114032    0.76950801161181
H          -0.47196408267738    3.32521291340387    1.07091281387435
O          -0.28333802446860   -2.34738650162047   -0.69847637543487
H          -0.17255260451423   -1.82569370504740    0.14075981563805
H          -0.36947347943530   -3.26214617662985   -0.42709945124640
O           1.94700658706421   -1.34186486739185   -1.99866898633583
H           2.36891138282905   -1.04444866823299   -1.18030596888312
H           1.20489273725516   -1.89509740904665   -1.69874775406713
O          -1.91169682573671   -0.25001379976301   -1.46368531101446
H          -1.53452615251759   -1.13557580376308   -1.31981850861482
H          -2.23668227770417    0.04325130308349   -0.59696017568336
N           0.49940274653593    0.83691565464551   -1.64764285620382
H          -0.51444611908266    0.53167962421317   -1.62983844967989
H           0.60988260807918    1.78886020144188   -1.97536286993288
H           0.92675292605512    0.71512980424597   -0.67321810542916
H           1.04903178959137    0.13663969350446   -2.19685501277813
