    26
        -50.45024469  Gyration_radius:  2.79886758668 Dipole_moment: 9.526
 S          -1.44328701916785   -2.27962982120599    0.35549390251485
O          -2.45972773113027   -2.41174879521160   -0.66386230656508
O          -0.11243612178051   -2.02401386493512   -0.15349058505421
O          -1.81180958351184   -1.33232432584683    1.40457036508434
O          -1.36456313591383   -3.70613571257899    1.07213251348962
H          -2.28485638820476   -3.94660032401091    1.09556429835961
H          -1.64346289858791    0.15336272680145    1.08506742836644
O          -1.54823193222743    1.12914988154665    0.85175315277656
H          -1.98892677180714    1.60235888779787    1.55875499361204
O           2.76580956764235    3.25464611322367    0.82869913519476
H           3.09874366091126    3.13030404340284    1.72020472292268
H           3.44887367091960    3.69943133660805    0.32325553536893
O          -1.88497269642279   -0.05576440810366   -1.73299717470185
H          -1.98214958534250    0.48049592753203   -0.93624567090747
H          -2.11430312382819   -0.96827202749741   -1.46273471906206
O           0.53755934098381    0.58845015521421   -2.52536639806658
H           0.33271853679838    1.22737777350061   -3.20971760345107
H          -0.33139820909588    0.16819979849797   -2.29186535123610
O           1.93408222678114   -1.13967704711885    1.09454901580924
H           1.10325683080099   -1.56256692573933    0.73727975069114
H           2.64731598137886   -1.59966528331810    0.64801632325799
N           1.03314224080956    1.13923603860855    0.04253471142469
H           1.58993725678008    1.97290738255452    0.24987956123452
H           0.94839129424536    0.97070672427077   -0.99115530433454
H           1.46578525252146    0.28232201375883    0.47985771854942
H           0.06450932644601    1.22744973224315    0.41982197472356
