    26
        -50.44438436  Gyration_radius:  2.65272193928 Dipole_moment: 4.213
 S           0.99035246708230    1.20633601543282    2.26390096803093
O           1.46522410285989    1.58902547789432    0.94172039280563
O          -0.36508487611599    1.59473536063157    2.52880897014210
O           1.23962729608392   -0.22747552582101    2.50045738419711
O           1.91333669071133    1.96138451181163    3.30775472491971
H           2.78709903848309    1.69854896515341    3.03592760897061
H           1.06330410948976   -1.12861694142314    1.44245292990381
O          -1.64806487784147   -1.41381273219167    0.23621258917689
H          -2.14441335347225   -1.60246304908142    1.03350960798347
O           0.87546571281730   -1.70019400116362    0.55991732675695
H          -0.13648816785929   -1.65686748410977    0.43278750954495
H           1.31617486946472   -1.08465342029546   -0.20014504643991
O          -1.32308534455794   -1.88351076791150   -2.42775352280522
H          -0.67434254660106   -2.58973731955071   -2.44929107853962
H          -1.62816597895580   -1.81953229907851   -1.50577127238694
O           1.82809814833804   -0.04826489510007   -1.03363885830020
H           1.14395759829777    0.21945423038179   -1.68383668031278
H           1.82017261525204    0.66300965874700   -0.34444455605803
O          -0.21977459403318    0.55952768088511   -2.67468693395772
H          -0.70084793452112   -0.29759438328793   -2.65664963658548
H          -0.08551682384603    0.78081596090095   -3.59692470774596
N          -1.51174944879884    1.11898913247938    0.03639024129945
H          -0.90035756352183    1.38319388701767   -0.72792144286484
H          -2.38140848994357    1.62486265339854   -0.07039893851832
H          -1.64538135797666   -0.36074143355816    0.13516226838333
H          -1.07813130086839    1.41358071787003    0.91646015238303
