    26
        -50.46688905  Gyration_radius:  2.41631106528 Dipole_moment: 4.690
 S          -0.56754996146811   -0.67895574615865   -1.64652226384377
O          -1.38636218949667   -1.40219243026456   -0.68853241732376
O          -0.98122025575255    0.69640008326366   -1.80842478247654
O           0.85685075432286   -0.81537291822910   -1.35657252971849
O          -0.77217295762209   -1.38852538040481   -3.04458441258783
H          -1.67418885432668   -1.15528053516177   -3.23172142947499
H           1.77547004505530    0.15341306498332   -0.44356473049524
O           2.29535084252516    0.67284788286549    0.22091004650509
H           3.21277494302489    0.60415637798125   -0.04799339653246
O          -1.60483814424874   -0.01077442659490    1.56398173185714
H          -1.79261760844480    0.90612065058561    1.23998973027107
H          -1.68055102950901   -0.57074941243264    0.76260008212532
O          -1.95904190292577    2.25427954065213    0.26391882779828
H          -1.13801499417595    2.77103782114354    0.21372091050646
H          -1.96230380184124    1.76689246440035   -0.57427771910548
O           0.57094971196790    2.72897508324202   -0.70030888261022
H           1.28847895994556    2.23375251928139   -0.28705756081515
H           0.12660171388288    2.09932681749608   -1.29005143994387
O           0.68901158276025   -2.70545845258939    0.46225024535906
H          -0.26417065057216   -2.81412639993704    0.34921315503827
H           0.92735865823913   -2.14516724063460   -0.30675698190771
N           0.82991534982545   -0.63357529680596    2.10264132783455
H          -0.19483847692728   -0.27353394976930    1.97124914933840
H           1.07649106919872   -0.71949228900638    3.08185058062204
H           0.84975600398437   -1.56891634146630    1.59959773720689
H           1.47886118257206   -0.00508147645594    1.59444501236317
