    26
        -50.45547635  Gyration_radius:  2.44532314834 Dipole_moment: 7.072
 S           0.75904780352909   -1.80456654276357    0.72818204523516
O           1.60084809778450   -1.06657935254704   -0.22653287871639
O           1.27646309525084   -3.05150930263023    1.16913342606578
O           0.66004686973446   -0.82575232025273    1.98828350848935
O          -0.61474411141186   -1.86720676285136    0.19989803390162
H          -1.65438882455813   -1.05679668354639    1.12615803946284
H           0.98365765681546    0.03316128997996    1.66858090368026
O          -2.11303698396442   -0.40760980641128    1.71953601241719
H          -1.64825891125759   -0.48939435150320    2.55652547944096
O           2.47095392411478    1.47312425177641   -1.27865071817815
H           2.70833702925688    0.54950446768119   -1.13733425479698
H           2.21845732723244    1.78745264275804   -0.40161297139392
O          -1.45452455190792    1.73019630884568    0.42936332285490
H          -1.75829271795972    0.92161442198345    0.94846885220619
H          -2.23235856119251    2.27643925794324    0.30968652941866
O           1.13031823095458    1.76591783936176    1.26083263093021
H           1.27635872804581    2.25303806643973    2.07353552419166
H           0.20244656132905    1.91480557525979    0.99747144869236
O          -1.42516761492516   -1.71641264812912   -2.32089754122195
H          -1.24644649398718   -1.89456024830880   -1.37031027530953
H          -1.15252009810032   -2.50547722845795   -2.79084189517551
N          -0.01772321697591    0.41906937322604   -1.55484968570012
H          -0.63002074788209    0.94787667055320   -0.91115291373154
H           0.60927562948773    1.05067659048761   -2.06095930208765
H           0.63603176457878   -0.22216245343188   -0.97181892210730
H          -0.58475989401668   -0.21484904547312   -2.15069438856928
