    26
        -50.47314778  Gyration_radius:  2.38302994225 Dipole_moment: 3.678
 S          -0.49914060630732   -0.49908217453532   -1.45009482805400
O           0.78677837006928   -0.07327415617291   -0.87601327906943
O          -1.59344581977540    0.05599326793004   -0.44153040625079
O          -0.74590870412311    0.08849764923142   -2.73903207547534
O          -0.65286178983641   -1.93980806070778   -1.37462703571625
O           0.58138949451566    1.11586808859112    1.47977028559124
H           0.69316666051989    0.70567168447700    0.59337764300760
H           0.14079485240336    1.95255607625239    1.30201888597788
O           2.43295575939661   -1.29774153430074    0.82126546345685
H           2.02249768934425   -0.87625586987393    0.03787278963404
H           2.49689273813103   -0.59719915854996    1.47710050680128
O           0.61570337671771    2.28147373362089   -2.37591165991833
H           1.42775471724085    1.89888935954597   -2.03237450047309
H           0.10310715087008    1.50584165407182   -2.70513285493923
O          -1.27086428974453   -0.65814665074518    2.23685877274648
H          -1.85625032853757   -0.46036493700048    1.49394238171770
H          -0.57398857860385    0.03669897863247    2.18271999376352
O          -1.02563456918329    2.61282267742374   -0.38359011787825
H          -1.74691070586975    3.16672018603824   -0.68776743608111
H          -1.44468270115416    1.03484200755532   -0.41584805247240
H          -0.35321793921105    2.60919775831158   -1.12447407130724
N           0.09348013672031   -2.56246549482203    1.01425168702018
H           1.09480834193321   -2.24359147992626    1.05471986600653
H          -0.48540022798534   -1.92247161449107    1.63280607607086
H          -0.23646878082554   -2.39739065162814    0.00433453091282
H          -0.00455425669530   -3.53728132894905    1.27535745496856
