    26
        -50.46410969  Gyration_radius:  2.48607262693 Dipole_moment: 5.305
 S           0.59033992957826   -1.40729799044274    0.11499964107064
O           0.57808628623515   -0.59297349017033   -1.11565556014453
O           0.20206410483609   -2.77395047500960   -0.12975895523262
O           2.03122578775641   -1.36709526744259    0.68992782046821
O          -0.27233518280204   -0.77583615409297    1.11763419878137
H           0.11908015145255    0.71352326708318    1.29657328539115
H           2.66983102995258   -0.86940991688240    0.10462118774937
O           0.27738266880416    1.69994103200612    1.38709306965506
H           0.54769938117175    1.84092258232217    2.29557285184121
O           1.72515603037034    1.81330858177297   -0.99435719023071
H           1.31891573685551    2.05807154728023   -0.14964355064052
H           1.26212120956971    0.99229586837070   -1.24981466919028
O          -2.26292324263417    1.88930521320250    0.48638541577843
H          -2.74543027600050    1.63467153680191    1.27516959328779
H          -1.32753704104320    1.99093256089135    0.76469927994405
O           3.72723524205451    0.13418799700887   -0.57473919881044
H           3.11241087182212    0.86760345076960   -0.82736530307703
H           4.33257298621411    0.48942603146812    0.07898657929713
O          -2.35405732187014   -2.41527205922606    0.19032251100348
H          -2.32350049317520   -2.14503421570063    1.11241719874673
H          -1.43402508020159   -2.73715108958264    0.01541188158892
N          -1.97914989266647   -0.19607920364004   -1.19933624046273
H          -2.28693891360508   -1.07387012371661   -0.68334140685277
H          -2.42315419748625   -0.11670347546619   -2.10819153813692
H          -2.16391669202261    0.65060733892718   -0.60523848836684
H          -0.92115309318053   -0.30412357654124   -1.29237239344753
