    26
        -50.47314774  Gyration_radius:  2.38303531604 Dipole_moment: 3.677
 S          -0.68491652080569    0.85438797330539    1.18390912187103
O           0.24825472138652    0.86526740307266    2.29487722698614
O          -1.88767412902591    1.61950975175912    1.37186609483573
O          -0.00615861859602    1.17726584077010   -0.08077911794095
O          -1.09379957028647   -0.67375108709119    1.04227713091901
O           0.96564446273221   -2.44278487576374    0.39619031216149
H           0.13843105619223   -2.26487177198719    0.86290318255110
H           0.82812280383450   -2.04161072442458   -0.49345495148911
O           2.56501318269932    1.05546965312209   -0.76364605426802
H           2.46964378295195    0.51119982276278   -1.55084585924104
H           1.65628893149987    1.34962740599783   -0.54604303570745
O          -2.47476256480288    1.94824792555585   -1.14655129728925
H          -2.38884590478939    1.96614416015466   -0.16421032105845
H          -1.61657617380874    2.24265114393516   -1.46380180355933
O           0.32793418065510   -0.89671547697289   -1.69070132842784
H           0.19488981430222   -0.09897897052499   -1.13170184865075
H          -0.55770165193183   -1.13499333315240   -1.98158435669317
O          -2.49450830060714   -0.65403393000192   -1.17133463271731
H          -1.66358808625508   -0.71247840177269    0.23310891661222
H          -3.40119558809173   -0.94031371338080   -1.04675412096477
H          -2.53546669498763    0.33912778725011   -1.28533697582681
N           2.31235323027790   -0.42338408022529    1.44074764948953
H           2.63489399639276    0.14090460057269    0.61395076267183
H           1.90747096949184   -1.33748938898176    1.08342868269834
H           3.05782227178615   -0.57208686009565    2.11174686595392
H           1.49843039975781    0.12368911607481    1.88173973704475
