    26
        -50.46207736  Gyration_radius:  2.47261735664 Dipole_moment: 6.122
 S           0.79338687459505    0.05484846027989    1.98968281298900
O           1.53862978538307    1.01264938396553    1.18444907459283
O           1.43959191577749   -0.38806329530551    3.18121739744649
O          -0.51124362693406    0.87227155732008    2.51215625659174
O           0.23665178869335   -1.00048799034663    1.14940352891918
H          -1.33908211685319   -0.83809518866648    0.85893450947048
H          -0.26384492222845    0.86293495756458    3.42960636512077
O          -2.27193482990019   -0.60288489178509    0.62633894843611
H          -2.57517066925626   -0.06054040750884    1.35708129268425
O           2.59339419938234    0.07270371499860   -1.08250741984028
H           2.24765335695619    0.47389159959978   -0.25988887094836
H           3.09510509556375   -0.69798405896156   -0.81136344151173
O          -0.29629825001094    2.55262375917296    0.17897717065784
H           0.49443610141139    2.05348746252169    0.49669225278367
H          -0.84068444165562    2.66152687618419    0.96216957027552
O           0.48645746474905   -0.69317080807947   -2.52846517294986
H           0.39876443413398   -1.56336268935593   -2.08614612797230
H           1.31907112850838   -0.32673982373194   -2.15349224314451
O           0.31447061919031   -2.78414668620917   -0.84912764735086
H          -0.47761700941420   -3.30033699286869   -0.69174829468347
H           0.40651721415388   -2.19547872432101   -0.07685398199218
N          -1.37649746185696    0.77679645696550   -1.49279369903393
H          -1.87109689613407    0.18626807028804   -0.78203154510345
H          -0.92327378352371    1.56213643506973   -0.95713317808153
H          -0.59907770287897    0.17413406795694   -1.96421920592875
H          -2.01830825785430    1.13501874523479   -2.19093837144018
