    26
        -50.46709576  Gyration_radius:  2.44947646311 Dipole_moment: 3.043
 S           0.46528906305551   -0.59686628290444   -0.75921301434522
O           0.96625615381007   -0.94662642510199   -2.17810865409116
O          -0.82036993958819    0.08937845294675   -0.88189747674279
O           0.33189584496169   -1.84675874957768   -0.02445038471847
O           1.45287284567432    0.27969514428691   -0.12627790706122
O          -3.07080360143966   -0.69574928018060    0.28427631536028
H          -3.52013898780581   -1.29664716141226   -0.31163729315756
H          -2.29690491625764   -0.34835524651770   -0.21471097008175
O          -0.16151816077179    1.29644147715770    1.69186916202336
H          -0.79769063264683    1.75364480568182    1.13572650590508
H           0.54776582388150    1.00241592776380    1.07823315411543
O           1.70949243523169   -1.39597155592703    2.33250564001873
H           1.48547938488318   -1.72112719252010    1.44957238752428
H           2.20284596197497   -0.58694523065139    2.18310281091859
O           1.83237352481895    2.43838555880064   -1.61464677077889
H           1.74849842729700    1.67940551050787   -0.99800844446374
H           2.76491651153199    2.51204107774822   -1.82364381624222
O           0.03480272993580    1.21694663211904   -3.18528544329327
H          -0.64660612053639    1.10409696499713   -2.50619080551214
H           0.67337008411737    1.85483568259410   -2.80286910712596
H           0.68083223090801   -0.17015004445314   -2.74754747951601
N          -1.13598411062968   -1.14197266331735    2.03992922031045
H          -0.76215788929439   -0.15238323976056    2.11687776220970
H          -0.54126287290902   -1.58599870834441    1.28568304125671
H          -1.03937188782439   -1.64427820659374    2.91657460764584
H          -2.10388188237844   -1.09745722733309    1.66013691983706
