    26
        -50.45725019  Gyration_radius:  2.61650073742 Dipole_moment: 4.507
 S           0.46767533762757   -0.55397810762378    2.28551940169844
O           0.07754989335015   -0.38905220949759    3.64765831225835
O           1.80814207092887   -1.04108130145793    2.05022240579565
O          -0.51580971575103   -1.69472916350750    1.67197495469630
O           0.15639772614975    0.59467058132307    1.42023694648238
H          -1.14811249279685    1.32503765806671    0.81064568561549
H          -0.37955987279662   -2.37602357099319    2.31993315214952
O          -1.90164403928134    1.70658249163487    0.29510411514079
H          -2.42776016083022    2.20625849814765    0.92115233119369
O          -0.17262752971040    2.52062884902356   -1.71061195340928
H          -0.89637701694920    2.28331119942505   -1.10135540248194
H           0.12014811761832    3.39634470068402   -1.45507564199896
O          -0.78749938350730   -1.49995079962943   -2.26416970005989
H          -1.48416779836710   -1.42268171791073   -1.56623584058286
H          -1.18645631315725   -1.19033061352957   -3.07845569852292
O           3.30197697112970   -0.79373623377841   -0.10548815425976
H           2.78569067641164   -0.96829897391556    0.71699162467567
H           4.14795224520460   -0.45340749295965    0.18733611545959
O          -2.43580234103317   -0.97838341726596   -0.25882284126022
H          -1.89863209137212   -1.32387314669932    0.46775546513277
H          -2.41627559001908   -0.01165292201546   -0.16313154010176
N           0.96930702359838    0.13036005418022   -1.03848174827984
H           1.96327749037113   -0.15872572868301   -0.97783878495473
H           0.82469402670384    1.04595961839173   -1.49456461252629
H           0.39291820562643   -0.58779465857527   -1.53756297894232
H           0.63499456089899    0.23454640712042   -0.04273563286860
