    26
        -50.46317788  Gyration_radius:  2.437410452 Dipole_moment: 2.699
 S           1.49695336754926    0.98417212276633   -0.69690312529410
O           0.75558591815244    0.06286292200865   -1.53718570798795
O           0.70070548490748    1.43825592897350    0.43240579576745
O           2.81912929088603    0.51935418697857   -0.35670187778212
O           1.71989499599797    2.30281858174393   -1.58736778992956
H           2.64052404327929    2.25571072827950   -1.82587452500872
H           2.27734862707278   -0.96312891286578    0.16997697901784
O           1.89781733368408   -1.79875502004864    0.51509808384182
H           2.54749007064720   -2.48228082984505    0.33813038386192
O          -0.73094862920066   -2.54018139917676   -0.32718614449597
H           0.19313892101751   -2.29015239263056   -0.18373057561300
H          -1.15050025220102   -2.51481276238772    0.53648308176736
O          -2.07211206839589   -0.76721447517445    1.65026209268621
H          -1.13562235167958   -0.67155092642150    1.98813752595551
H          -2.60234488946491   -0.18037694904074    2.19107448728409
O           0.40569772187882   -0.39294733945085    2.35824306345531
H           0.56123128254777    0.39597584938844    1.80451359355476
H           0.96716386967936   -1.07585896606110    1.96232760784979
O          -1.25229843149937    2.59299266271922   -0.90868789407099
H          -0.54191058718696    2.29947036752534   -0.29789927304320
H          -0.78897155201895    2.98412807356577   -1.65192192176149
N          -1.77285602028067   -0.03434659887516   -0.92161130772628
H          -2.35148576288601   -0.57617582449376   -1.55483450850915
H          -1.92538418375233   -0.35729364156988    0.07062113546340
H          -0.74933543840716   -0.18548318552640   -1.16686046423206
H          -1.90891075032183    0.99481781960467   -1.00050870501271
