    26
        -50.46626259  Gyration_radius:  2.42800086394 Dipole_moment: 5.964
 S           1.01950152910960   -1.11769131571129    1.30300976335452
O           0.15112119257756   -1.88362183153606    0.41919464778094
O           0.73840968687580   -1.26483068394128    2.69935481470513
O           2.49444205570016   -1.71697363416670    1.09084583575323
O           1.12752097805789    0.26669444574577    0.84551102428753
H           0.52370112882519    1.47161680720099   -0.10497919555944
H           2.64950065819113   -2.15859640292415    1.91928740064022
O           0.13982597784298    2.17900436138891   -0.67397614232002
H           0.55712494646104    2.99481998249430   -0.39420892634778
O          -0.69596401293330    1.08369718304016    2.67466982518794
H          -0.69717670219459    0.34084995442324    3.28514951711081
H           0.06260499786623    0.90121564460917    2.09641320042842
O          -2.30108251456113    1.33027638883097    0.51278199738167
H          -1.64474990746804    1.85635078203339    0.03562316186992
H          -1.92831608703170    1.23724818831826    1.41153045568617
O           1.67936375511489   -1.30257750288201   -1.60775058742585
H           2.41703282929976   -0.90952764847823   -1.13558993162994
H           1.11610723198547   -1.68038381765636   -0.89413808592655
O          -2.01196104045048   -0.92391029178682   -0.83753333056882
H          -1.35247484553145   -1.41332620626013   -0.30632336097742
H          -2.28398533272145   -0.14929538589349   -0.28268822685714
N          -0.35104368872399    0.18758329710072   -2.45028275735869
H          -0.58555924316203    0.22878309732402   -3.43498822475361
H          -0.20834394883127    1.12452434671004   -2.04454013394843
H          -1.13836404871740   -0.30562663146778   -1.85234393355507
H           0.52276441441042   -0.37630311651422   -2.27402878695830
