    26
        -50.46142361  Gyration_radius:  2.477480473 Dipole_moment: 4.533
 S           0.62494480145274   -1.26085657588249    1.57529972846947
O          -0.44173504245629   -0.38828067263749    2.03968033835860
O           1.30966602186281   -2.01411509440759    2.57215693054926
O          -0.11496177359374   -2.36314332578092    0.64429619741275
O           1.49087718863259   -0.53988628974528    0.63494770925506
H           1.50366547120546    1.62483308838984    1.30629562096218
H          -0.00716834329299   -3.11403500484823    1.21712179497692
O           0.65770375825984    1.96585437768855    1.61110634411038
H           0.18551231365210    1.17063878422659    1.93916465848680
O           2.75312802472974   -0.49023567623780   -1.83866728303640
H           2.53268054968703   -0.60095259488489   -0.90040173120525
H           3.61776987036953   -0.88240461488320   -1.96338405136747
O          -2.51915577165698    0.32998788219985    0.47885132320029
H          -1.87847206720089    0.04043034361860    1.15593214226950
H          -2.21251244990617    1.20023927568421    0.18996623482445
O          -0.92392459831021    2.54731661446633   -0.40722592261529
H          -1.09896122109847    3.48536107103701   -0.48484139523941
H          -0.34036783930087    2.43140835833823    0.38954325630512
O          -1.88856928754759   -1.43452433015872   -1.38045803262890
H          -2.36373313240856   -0.84317893404400   -0.74580780082895
H          -1.46252723506105   -2.09839570012616   -0.82511280792426
N           0.11204983264222    0.26144167610740   -1.46692741648459
H           0.60383732626881   -0.03031159706857   -0.57793484790838
H          -0.26734404826021    1.21362761239900   -1.33587144275531
H           0.81350710471008    0.21792655526168   -2.20641536717885
H          -0.68590946336672   -0.42874524874492   -1.62131420003796
