    26
        -50.46288374  Gyration_radius:  2.57655369464 Dipole_moment: 5.247
 S          -1.57597735442144   -0.09209166111760    1.07724982415745
O          -0.33251969783648    0.59023751597312    1.47223197723241
O          -2.60655513347050    0.00719499545296    2.07109520151951
O          -2.06254219077496    0.72265510739837   -0.21565073815013
O          -1.30104837445113   -1.42598098412792    0.57882637950856
H           0.60182591575371   -2.01832604623757    1.02083789106656
H          -2.35108583788649    1.55731856397107    0.20268081668409
O           1.33863322847174   -1.39504881038714    1.08312809682866
H           0.89563657811252   -0.58627753234527    1.42388940443398
O          -2.43801975592543    2.58261919685580    1.61204699996131
H          -2.69978137863256    1.74407416306915    2.04404594988377
H          -1.57975763171451    2.79949304368868    1.98618228247178
O          -1.13836394389916   -1.27953624019220   -2.03153756544677
H          -1.77391178910027   -0.58481031736506   -2.22010831348257
H          -1.27625755164452   -1.47718399177566   -1.07454929875202
O           0.55976131053300    2.01305360113241   -0.54547590076280
H           0.27146015138656    1.56507296129162    0.28656023853651
H          -0.23809093675635    2.38427804015656   -0.92793849371691
O           3.67247001936753   -1.57480841288174   -0.63076427429679
H           3.13743323360347   -1.64080726546368    0.17120399807850
H           4.54510706394957   -1.89850998912264   -0.40494416417790
N           1.28404343778380   -0.39503940194120   -1.42932468828425
H           2.13893911076277   -0.60894471464462   -1.93807907152788
H           0.40899537552002   -0.78144078591407   -1.87416130124106
H           1.36435408810755   -0.83942683250792   -0.47691648041366
H           1.15525205316590    0.63223580705421   -1.26052877015649
