    26
        -50.45841229  Gyration_radius:  2.47316984069 Dipole_moment: 4.878
 S           1.02770250866387   -0.31071151277284   -0.02393024683247
O           2.04055487911885    0.54453325992619   -0.86580995258814
O           1.74957059926985   -1.08183943215477    0.95466420376487
O           0.11934972888298    0.66874044166858    0.58147022454150
O           0.31867682442669   -1.13580048209633   -1.00249781485041
O          -3.37492522678842   -0.34997671569984   -0.69069364256065
H          -2.89267224908208   -0.58137538819156    0.16857208766218
H          -3.88963174050064    0.43709987908849   -0.50151258969438
O          -0.30702446156488   -2.84039609964913    1.18375961003315
H           0.51507678522600   -2.33052741378918    1.28097342525936
H          -0.35741010851583   -3.04446179951154    0.24590709573259
O          -1.99130477278472   -0.74140517742343    1.43854577744141
H          -1.25411349289973   -0.12380412110822    1.27570090669275
H          -1.56291953925323   -1.62056104830519    1.48545089781835
O          -0.38167485180524    2.17212414276341   -1.45800469596758
H          -0.22077768617862    1.73773057629183   -0.57999884314057
H           0.48879665554033    2.26118790850029   -1.85539858017773
O          -1.46530482530405    0.02382376595477   -2.27240871217590
H          -0.71072947944971   -0.55275738005747   -1.81771277944187
H          -2.31815128345874   -0.14424195641453   -1.67189509890368
H          -1.14236730373360    0.97836810557711   -2.07980453212945
N           3.20983246794590    1.29695235119070    1.32897686493022
H           2.68683773860621    2.00075098845513    1.83400351731565
H           2.62871327865592    0.95239918667528   -0.16252774143912
H           4.19043820648427    1.40067406526821    1.55672372930496
H           2.89345733851212    0.38347385565043    1.64744687938067
