    26
        -50.47155233  Gyration_radius:  2.43057768094 Dipole_moment: 5.669
 S          -1.25557110368558    1.21410701599526   -0.12119456665003
O          -0.27338490548047    2.08394100300084    0.51051392464228
O          -2.42000900771915    1.89288718840990   -0.61174566482606
O          -0.48579371099709    0.62125061341405   -1.41610694933377
O          -1.52509338496696    0.02599402000273    0.67411948384104
H          -0.64473325599675   -0.72626301900770    1.96182529310364
H          -0.39456174658153    1.45954646856401   -1.92083283808866
O           0.11497008680513   -1.15934516291890    2.40266311671014
H           0.81808634357150   -0.48795347928972    2.35940319515551
O           1.93686583291228   -0.53982127406827   -0.75394115439416
H           2.10742204406942   -0.02797544316736    0.05890184886507
H           1.15349526613317   -0.11947468779386   -1.14783398979096
O          -1.64343092212784   -2.00720692678948   -0.96848657980113
H          -1.77485789286607   -1.26547517682460   -0.33223253800138
H          -1.51649486870899   -1.57908738233174   -1.81860233876831
O           1.74135801535975    0.87683616471588    1.55950865507994
H           2.26473302432404    1.54337997632225    2.00680769957781
H           0.94786071484218    1.35732316264150    1.18937574266194
O          -0.61479697284599    3.14615740706927   -2.04262715327795
H          -1.51031584461254    2.97783898811913   -1.69159047375907
H          -0.11759867936632    3.46176084280435   -1.28060251875232
N           0.63254629211428   -2.58960255504864    0.27404128524257
H           0.99971761245754   -3.53207851644701    0.33117073906215
H           0.44020378416269   -2.16339669005719    1.23920525521429
H           1.29751195548358   -1.91630460886010   -0.20278698701438
H          -0.27812866647686   -2.54703793845871   -0.25895248680601
