    26
        -50.45619590  Gyration_radius:  2.57895212484 Dipole_moment: 2.890
 S          -1.31523036275079   -1.92013581838354   -0.91281758099633
O          -1.31456479012300   -2.45742930455616    0.44941209626668
O          -1.50019754865021   -0.49177916487585   -0.92398046305549
O          -0.14718032614332   -2.36158312026429   -1.66304121329883
O          -2.57445275097213   -2.56047565779032   -1.64017544204114
H          -2.36814730767846   -3.49072561694729   -1.65765788116596
H           0.98847085929678   -1.53134118521688   -1.00058148727396
O           1.69423549782193   -1.03194485895723   -0.49644838920796
H           2.45862900681389   -1.61027795296837   -0.46644158200351
O          -1.24141784727291    1.80038397972318    1.53625855484283
H          -1.09426897527488    2.02008506616277    0.56677914783803
H          -2.19170895959524    1.72474771620374    1.63295365982768
O          -0.83517731396888    2.09385411077294   -1.00667411052721
H          -1.16990298662799    1.19383325855447   -1.17189859946064
H           0.12698380510231    2.03715672010004   -1.14163641907786
O           1.71165589040021    1.64135810811549    1.63908864949206
H           1.93966242416737    1.83613301764576    0.72285625672385
H           0.90478021723946    2.13245341774887    1.81850873024524
O           1.86550707144024    1.56144061958923   -1.23593188771284
H           1.81808707448921    0.60428257801146   -1.03382046584209
H           2.24694293732197    1.64346905726993   -2.11086997492930
N          -0.00172598292161   -0.57135127634161    1.63962830937050
H           0.80895400937289   -0.50083919977495    0.99830738670980
H           0.32760770970609   -0.75164294972551    2.58314716718230
H          -0.52297000196408    0.35099609915689    1.61325755527644
H          -0.61457134922443   -1.36066765325543    1.26177798282523
