    26
        -50.46456346  Gyration_radius:  2.44381931845 Dipole_moment: 4.611
 S           1.59203682083771    0.77063707491783   -0.44997102272168
O           0.31306481072983    1.49432475958055   -0.27391279769934
O           2.58675305381297    1.53959320117988   -1.10947332429675
O           2.06632620973760    0.40863898282282    1.01468288675360
O           1.32149869902172   -0.54152159969453   -1.04734399551276
H           1.13759806596498   -1.64603911381838    0.22537768198980
H           2.11711246963154    1.28523071467579    1.44060338911436
O           0.90609609599437   -2.23853949714019    0.97062352259307
H           1.72514673657395   -2.38017911792835    1.44651161875526
O          -1.89313949499179    1.42898134170233   -1.72451624160233
H          -1.04134386043924    1.60138712955179   -1.26451797060622
H          -2.58138752054146    1.69223219622862   -1.11014722197773
O           1.42497030552913    2.86766927013446    1.71445428108601
H           0.94990775480942    2.69367097429848    0.88293906900760
H           0.76006100414759    2.90667112289352    2.40698818320390
O          -1.80723952325492   -2.22645078596119    0.37434421710513
H          -1.00300609716005   -2.70919107929950    0.61211629934185
H          -1.72813275407033   -1.39671692703321    0.89796421402952
O          -0.85037574736184   -0.03613968313117    1.56776177050040
H          -0.48185265174934    0.56980515403526    0.89520377128848
H          -0.11008050084082   -0.60502722052428    1.81719058773943
N          -1.09549472089378   -1.11076047149386   -1.88497003376014
H          -1.48637239650896   -1.65061616265813   -1.04523284976562
H          -1.16868601203594   -1.63582556043303   -2.74888174294902
H          -1.57139218918022   -0.17842024744095   -1.95510843256757
H          -0.08206852778469   -0.90341443548874   -1.65268587899953
