    26
        -50.46054461  Gyration_radius:  2.40504635604 Dipole_moment: 5.819
 S           0.87729470044299    0.84340970814350   -0.91012315800421
O           0.62534605167569    2.19595523042055   -0.46267550484692
O           1.71684573060941    0.69888501098540   -2.07585689271788
O           1.67186845645195    0.11334214265059    0.26975891498727
O          -0.35738309669945    0.07117219542895   -1.05505459806656
H          -1.14494142615140   -0.80085050807898   -0.02818035235456
H           1.49260619028572    0.67028879513619    1.11046854740954
O          -1.49276634279402   -1.51980883748162    0.57488402276898
H          -2.40433897240354   -1.65865157237997    0.31300983715715
O          -1.45204607160577    0.68928536878904    2.36173895475316
H          -1.79972939221364    1.28546220415486    1.66825865662232
H          -1.47309194844559   -0.19515232744600    1.97035822622638
O          -1.93773389142522    2.28957009319372    0.23763151158040
H          -2.13321146720078    3.22788531339297    0.25646207209600
H          -1.03385827075266    2.20820749597801   -0.13426865743275
O           0.92887248944465   -1.63644884490723   -2.81801113188335
H           0.02889142619432   -1.41894411562081   -3.07590217938682
H           1.34109473056131   -0.74472350958415   -2.63349461668122
O           1.01187955729978    1.62444278772184    2.16496885005800
H           0.10965213947346    1.28837783932523    2.40827903711589
H           0.86787638341870    2.32071967700966    1.50784929735784
N           0.91701952949688   -2.35182596948607   -0.31634308812577
H           1.36179295542844   -1.47493437007923    0.04865508234683
H           0.89120683270738   -2.19125258699534   -1.38828246494847
H           1.43958567317741   -3.18199708511295   -0.05645998547915
H          -0.05273196697013   -2.35241411514823    0.06232961944905
