    26
        -50.44184003  Gyration_radius:  2.44268847823 Dipole_moment: 9.089
 S           0.39710299937302   -2.06848679550958    1.40041234558403
O           0.25281831923035   -1.79876153299212   -0.01703405547433
O           0.71804537351510   -3.39226491976609    1.77578574463938
O           1.45158566552015   -1.08891086561053    1.96909014532720
O          -0.91164078244068   -1.64513073991994    2.10615776691978
H          -1.27380766304872   -0.78836999252002    1.72238428682874
H           1.66359169679272   -0.32070804290288    1.34611780807633
O          -0.16454714717746    1.98269062369751    0.16324186111606
H          -0.24697732038699    2.93166981366309    0.22606648739028
O           2.06829584432659    0.94153383313895    0.54499932067555
H           1.15017224781338    1.41653027926887    0.40383627886255
H           2.57782319876957    1.49281809975925    1.13992546464458
O          -1.92242536094941    0.54050217390921    1.21253405010243
H          -2.28574231833024    0.99803340290592    1.97141371612345
H          -1.19907843913268    1.16245117442196    0.80661398153379
O           1.84411434809846   -0.53166207778190   -1.80002080390493
H           2.25795352604131    0.01667870857828   -1.11847046698619
H           1.36049161313020   -1.20821101540341   -1.29368867850653
O          -2.06135786218383   -0.98558068916440   -1.13392280485173
H          -2.39379527825777   -0.51556793879086   -0.35768553320717
H          -1.29059763491416   -1.48529257495854   -0.80499946702888
N          -0.40751273694870    0.88440614461316   -2.09805086564239
H          -1.15597310832871    0.17246816916623   -1.91758377721748
H          -0.60751292129361    1.45049381510344   -2.91236098440460
H          -0.32043959154172    1.47446075671881   -1.14425065981528
H           0.49941331232373    0.36421019037504   -2.19051115078317
