    26
        -50.45178995  Gyration_radius:  2.62605151312 Dipole_moment: 7.905
 S          -1.88936491979302    1.36978497624641    1.52456895286127
O          -2.52340594888088    0.55752997552929    0.51339020595375
O          -2.64771759155190    2.47499074039323    2.01491516773897
O          -1.64351104581474    0.40542775996756    2.80093463724649
O          -0.50998619765103    1.70918976814333    1.12141384227304
H           0.33089065590064    0.47258310244740    1.60743293360392
H          -2.44439051482139    0.58908968939339    3.27781199042798
O           0.89346105444501   -0.33172842885583    1.78345277272243
H           0.74688109846557   -0.54100854459266    2.70702391966035
O          -0.55576113015927   -0.98742009537016   -2.37549495600786
H          -0.52846750970902   -0.02782207775642   -2.26771088793552
H          -0.88891638083035   -1.31879334411706   -1.50984109323777
O           0.10067494427322    1.59531707231781   -1.36923334931403
H          -0.25907826765263    1.63492876938757   -0.43879153997148
H          -0.00205738048682    2.47818514700229   -1.72648542283463
O           1.78887837207000   -2.01565828513484   -2.07956079322001
H           1.60794544702973   -2.85154410134705   -1.64515200559793
H           0.88809761597247   -1.66913123760707   -2.36697690226539
O          -1.06018676398665   -1.59888197828787    0.17153151170586
H          -0.34058209658410   -1.37596569555709    0.77773163584750
H          -1.71989659993449   -0.88090145622390    0.29542556456632
N           2.15642842537385    0.06939200446589   -0.55772450502543
H           2.10696638306696   -0.82568382250082   -1.15393193828344
H           1.45179297176426    0.74284335455111   -0.95077984735848
H           1.85438167626240   -0.14716960819685    0.41204622918457
H           3.08692369327875    0.47244631567431   -0.56599610272457
