    26
        -50.46635925  Gyration_radius:  2.38646078731 Dipole_moment: 9.009
 S           0.49722129742115   -1.76924389707192    0.51197563693498
O           0.17399757775768   -1.46461352283707   -0.88460281563510
O          -0.00374447000448   -3.02058027763704    0.97265685528628
O           2.06888070600752   -1.77490245113962    0.59575201358412
O           0.08430078574570   -0.63680133681234    1.37180787304792
H           0.24058074861220    0.85435753105199    1.28790526247985
H           2.31006866176108   -0.87210317402370    0.33058039936711
O           0.38556186101239    1.85348552547413    1.20911411592950
H           0.24854423940235    2.19887654398481    2.09253013141694
O           1.04611689118735    0.59881121222123   -2.22403366513335
H           0.76784666620322   -0.28151268063366   -1.87281097341090
H           1.83688060575992    0.81887262420052   -1.71700771528102
O          -2.30596677583960   -0.60301339061439   -0.92925673576545
H          -2.58818288533592   -0.89867131640096   -0.03502720726696
H          -1.45906005133654   -1.08226204360899   -1.06899960738011
O           2.66039369541083    0.85934118017204    0.06768508012626
H           1.93021667479711    1.33835925228999    0.50911502227880
H           3.46223561270903    1.04548777265276    0.55968392249269
O          -2.37818185681735   -1.59817345559545    1.54512517170877
H          -1.49968033143953   -1.19639953866689    1.67822319382358
H          -2.18231218600292   -2.53787944834668    1.47424066974023
N          -1.07613911986428    1.66882645780653   -1.09586808029214
H          -0.23695230408599    1.35013953869881   -1.67483526988965
H          -1.57858539166705    2.42635411687787   -1.54360424605323
H          -1.69972584997039    0.78197204834464   -0.98977092155077
H          -0.70431482157024    1.94127271954456   -0.17057809047255
