    26
        -50.44061952  Gyration_radius:  2.60241084353 Dipole_moment: 6.796
 S          -1.99513771926950   -1.53996809708096    0.29226167388132
O          -1.07539887035982   -1.05952527091266   -0.70994558973676
O          -3.29223502528990   -1.89660708108040   -0.14161265438374
O          -1.35216050436372   -2.72447132887502    1.04509565158086
O          -2.06240528885897   -0.44973810841904    1.41815691114852
H          -1.61969627255392    0.39082730115446    1.12431857026223
H          -0.58164404827403   -2.35664339000203    1.55908227766677
O           1.55941186019195    0.59120149251276    1.27601362745536
H           2.38334882853163    1.04496326980123    1.45642867603700
O           0.43731168902010   -1.52703117681260    2.49072520495528
H           0.90634234222776   -0.78032307774936    2.05757854799331
H          -0.15264587747250   -1.13919498601414    3.14120633984487
O          -0.76674641440978    1.75666518330261    0.90024292161407
H          -0.90972498093275    2.37945014474871    1.61537908611417
H           0.15084244673038    1.39241189942776    1.00581012303946
O          -1.08612048392396    1.40345291590383   -1.89686779820112
H          -1.06682675684239    1.84894701264851   -1.04208489760719
H          -1.15823089272069    0.46057094664363   -1.67456490291683
O           1.41223328952654    1.55657407205588   -2.90356807046622
H           1.35326067739963    1.58200413544840   -3.85922614768802
H           0.48433141479478    1.58666553625511   -2.57847762187554
N           1.73239996909805   -0.55589778307128   -0.98535109543454
H           1.68213801541870    0.12225970868200    0.33578072644857
H           1.83656450842006    0.14756742986472   -1.71769538745830
H           2.39234739676199   -1.30350224748840   -1.15064601802674
H           0.78844069714656   -0.93065850093698   -1.05804016424989
