    26
        -50.46690403  Gyration_radius:  2.53475886307 Dipole_moment: 6.443
 S          -1.16793330062956   -0.03895782636815    0.21068461648455
O          -1.23122498376575    1.01577409096816   -0.79121294887114
O          -1.03533391711686   -1.34941487610952   -0.38338784394568
O          -0.05885110604569    0.21682237175972    1.15766370153080
O          -2.48103960800674   -0.02516344935440    1.03423090291813
H          -2.35215194712796    0.72790969802578    1.67628550560061
H           1.06942362199213    0.87717779042380    0.05344597319267
O           1.44614460252984    1.04675458549360   -0.83551747419040
H           0.64929210236079    1.26555113097262   -1.34081360001695
O          -1.66694670141758    1.94773501169230    2.47926613828000
H          -1.71595687159159    2.66885379962949    1.81554138012741
H          -0.81002055196424    1.52197703435289    2.33070772422259
O          -1.74119506077465    3.38684430706213    0.22173653456072
H          -2.57613563055648    3.67767669721645   -0.14823684344960
H          -1.52142623670902    2.54362794636125   -0.23806682037669
O           1.57390224851722   -1.82617250551934    1.39491844545131
H           0.84558939485811   -1.16199867356441    1.32891055564249
H           2.06818564700125   -1.59157669459574    2.18259545721586
O           0.14898819636419   -2.44289435270850   -2.39867201972316
H          -0.41455308291341   -1.97445442118169   -1.73042818998394
H          -0.09520611270220   -3.36737487454176   -2.32306022997689
N           2.24633382135178   -1.43821020184856   -1.15356674527927
H           3.18396749745162   -1.62467316318455   -1.49061423754845
H           1.50472054844887   -1.92303870358138   -1.73635723329261
H           2.11383184682585   -1.73616791828044   -0.15393526337048
H           2.01759558392132   -0.39660681327412   -1.16211749510456
