    26
        -50.46670594  Gyration_radius:  2.50060108942 Dipole_moment: 3.094
 S          -0.00481361167737   -1.13606290538281    1.77517466931814
O           1.19625171598427   -0.60387928202828    1.14699571775125
O          -0.39078967421019   -2.41626902995889    1.22113349655553
O           0.35354286505854   -1.40123344492666    3.29547265356227
O          -1.08497142022270   -0.16136691448948    1.78416560570218
H          -1.10146673937228    1.13666260628702    0.86744655659327
H           0.80380729367261   -2.23662319513952    3.23033607220611
O          -1.16380317691122    1.88894722091184    0.21765773231810
H          -1.78710675104596    2.51223120533453    0.59339692445218
O           1.19818847742789   -0.93151083603471   -1.48833208679316
H           1.74774407199061   -0.15732807548741   -1.75853399611612
H           1.27155694228059   -0.96910043039186   -0.51097394670205
O           1.62103189214231    1.97373641709934    0.50931146410100
H           0.69358687722635    2.22157396934764    0.38761883174019
H           1.58661397114334    1.06398009849322    0.86366849619526
O           2.49052047238372    1.35948484414542   -1.91531202119194
H           2.21084149203632    1.70510712265699   -1.02963734283659
H           3.44822774285631    1.34707775561805   -1.90197316286683
O          -2.53600766113839   -1.63161838676337   -0.01153161335025
H          -2.73698208055867   -1.01719406452993    0.70370904653351
H          -1.77402968157775   -2.13923717852871    0.35593846250445
N          -1.22498213269654   -0.06925004599591   -1.69342133668725
H          -0.20341001236411   -0.46253705761614   -1.68691380518057
H          -1.56948767696215    0.03944827176384   -2.64055147604196
H          -1.82242148124446   -0.74678919634309   -1.13079924229380
H          -1.22164171422790    0.83175054193143   -1.18404570946428
