    26
        -50.46760078  Gyration_radius:  2.41447636607 Dipole_moment: 4.168
 S          -1.28515799568976   -1.24407523322102    0.30810609110641
O          -0.37704392465059   -0.42180369337279    1.06889520137739
O          -1.10495321129665   -2.66549513681854    0.47250883054536
O          -2.73773683013596   -0.91598940977858    0.87450122404163
O          -1.31844441085391   -0.83503739944338   -1.09925696646974
H          -1.24156278222917    0.75164853550313   -1.28449490697812
H          -3.22071083657510   -1.71140303065671    0.67699380975633
O          -1.10979309272771    1.72548830435850   -1.44278022890682
H          -1.53702868770758    1.91151063743611   -2.28028746678029
O           1.52735814107860   -2.81951001501854    0.56571964540229
H           1.74405848720347   -3.73698233440544    0.38691918081306
H           0.55190912333117   -2.78682218152067    0.66551755025735
O           1.40167776844237    1.53051832830932    1.80183100813506
H           0.54440643466873    2.00413237638604    1.85514505961582
H           1.14914890431466    0.60572126121719    1.93003783080906
O          -1.19509596434254    2.12688746246099    1.37766413495458
H          -1.16239022491433    1.15410379265971    1.39777337517715
H          -1.36273195772475    2.34194356486210    0.45295466748461
O           1.31532540308920   -1.11189276244766   -1.47726967924861
H           0.33900913156253   -1.11772573655644   -1.48211325481323
H           1.56597138405754   -1.71959916122922   -0.74718618671785
N           1.52489763795947    1.40874886712578   -0.81607720464035
H           0.58284872731393    1.73031944391738   -1.11443813356567
H           1.56897793682989    0.36772819356027   -1.07568825248241
H           2.26222811543384    1.93751491598698   -1.26778264012998
H           1.57483270355843    1.49007041065947    0.25280731126480
