    26
        -50.47117859  Gyration_radius:  2.50412038671 Dipole_moment: 3.660
 S          -0.60254488478635    1.49939718144132    0.33429727666882
O           0.76590363037134    1.00350219633690    0.10826924872172
O          -1.33370632233032    1.60163193500222   -0.90260020423036
O          -1.26428690911325    0.63893885924943    1.31723849235270
O          -0.47410067979474    2.92747134979485    0.94132564963955
H          -0.07215786143196    2.78126046505367    1.82066063566691
H          -1.92730085276461   -0.53553895289562    0.30534196367704
O          -2.13000323979900   -1.12240936330575   -0.45400440510566
H          -2.64568011562483   -0.57410997948578   -1.05160639453808
O           1.10914681519422   -0.99895578873539    1.79808062583751
H           1.07852150636827   -0.20889134806266    1.21490402154284
H           0.19309088260220   -1.16393023111860    2.03921077925862
O           1.96024416221213   -2.71665447366385   -0.10521641234442
H           2.91667630328697   -2.76529137156500   -0.08558690195677
H           1.69452626477421   -2.20443329871375    0.69159289937519
O          -0.55252438213377    0.66394183755118   -3.30102539100520
H          -0.86984318388209    1.06705620333798   -2.46711353943571
H          -0.59340499009307    1.35798153451912   -3.95942564753208
O           0.35373125858820    1.68906161802275    3.14314239297083
H           1.14071419667253    1.13713708272788    3.10339605436136
H          -0.36787204016156    1.15677376599447    2.76300132862944
N           0.34004002191531   -1.07241571203658   -1.47470899756728
H           0.29909445148361   -0.82015231548860   -2.46700904217708
H          -0.63762599276776   -1.28522805258373   -1.14320227093873
H           0.99130235750807   -1.84469954506271   -1.22754115120279
H           0.62805960371692   -0.21144360631455   -0.94142102067260
