    26
        -50.46891602  Gyration_radius:  2.45622447178 Dipole_moment: 4.547
 S          -0.03657071222117   -1.51354128352030   -1.42969366891514
O           1.36333390023660   -1.11588112547787   -1.34069791040140
O          -0.55124525250343   -2.07552508478585   -0.20726081259876
O          -0.85364981741225   -0.42116807881808   -1.95232029927495
O          -0.09445333733268   -2.65941691487127   -2.51868271553077
H           0.33690263272109   -2.24272152393813   -3.25684047713823
H          -0.34014636283404    1.03322961727392   -1.46585757789666
O          -0.15363732707551    1.93757528268637   -1.10983448519493
H          -0.58379044574605    2.54774597666899   -1.71131110885442
O          -2.87870449321331   -0.53471727911048   -0.16870674451792
H          -2.67812948210613   -1.40288057057639    0.19283131857115
H          -2.27560611260759   -0.45115418436894   -0.92904141429806
O           1.59095471674077    2.39816879617341    0.92561881806812
H           1.10206610087039    2.36664925459083    0.08338944389843
H           0.92311090378051    2.52870200579551    1.60530152969344
O          -0.04595029882031   -0.96041089949245    2.16919919953939
H          -0.58017514037547   -0.14296838509498    2.03329633247203
H          -0.31259483740701   -1.54678607081574    1.43426882148623
O          -1.38650290827717    1.18274213218102    1.28925147773242
H          -0.96157554464995    1.55726861488334    0.50166052954573
H          -2.12231481880885    0.65115942234419    0.92093155879088
N           2.14173748466176   -0.22713308771372    0.99570489014831
H           1.91885166285261   -0.58923513152607    0.02541161817071
H           2.10916945444322    0.82061633949860    0.98177565332056
H           1.32801576307097   -0.56943245229991    1.61955811848042
H           3.04090425001814   -0.57088536930039    1.31204790320070
