    26
        -50.47003172  Gyration_radius:  2.46523930017 Dipole_moment: 3.024
 S           1.28347344353093   -1.08634005658572    1.16133662886899
O           1.08544987787552   -1.57951933921720   -0.19391005857316
O           2.61539422747201   -0.64253671022030    1.44360506315556
O           0.26266463707839   -0.07499362366128    1.48600839290412
O           0.97762038691302   -2.31038931950675    2.11640527503370
H           0.11027932617968   -2.61342829428804    1.83472083988785
H          -0.50660033920253    1.22296631591636    0.83968959352913
O          -1.06832260806948    1.93766236675614    0.45832019242639
H          -1.07424844533351    2.64098964876172    1.10894167488933
O           2.70612769281372    1.28015851708384   -0.37192454406357
H           2.65440220287455    0.61903246946780    0.34847777992037
H           3.56295520046782    1.14698971027610   -0.78158055814170
O          -2.64364770847592   -0.12219781317318   -0.59881681763826
H          -2.49570570277839   -0.78804930913503    0.09835113359799
H          -2.35243632542574    0.72351374685599   -0.22160802845097
O           0.52429483689665    2.00638129137766   -1.77937909887806
H           1.37834019756279    1.83200055156730   -1.33445880304129
H          -0.08616301917178    2.23772690528786   -1.05742827953920
O          -1.73367548319735   -1.68320968938781    1.47668602320436
H          -2.19768070460964   -1.62301717714662    2.31413330781861
H          -1.00261901208510   -1.01388934970905    1.51054343046684
N          -0.40675932154978   -0.43480482308558   -2.00070843641394
H           0.20820911381892   -0.94482230998718   -1.30287386218506
H          -0.01962470888163    0.55797381547830   -2.07249676554291
H          -0.40481494632265   -0.91009288325886   -2.89537430206991
H          -1.37691281837471   -0.37810463044764   -1.58665981113735
