    26
        -50.46648940  Gyration_radius:  2.59509101577 Dipole_moment: 2.923
 S           0.65173689775762   -1.64206579585652    1.22547450954533
O           1.00123854901391   -1.09723365970820   -0.08676520558734
O           0.09849543660316   -2.96852020701117    1.15868528969970
O           2.02474047425782   -1.77517033575955    2.01695463376225
O          -0.14474603196913   -0.67798302910514    1.97268832456045
H          -0.00185459615820    0.88858729887865    1.66281236429798
H           2.20617356692356   -2.70752750272192    1.95729443873824
O           0.02434525718695    1.83803820066081    1.37496653718704
H          -0.24623481297953    2.35104630422116    2.13740774549521
O           2.38253903680238    1.24328464907653   -0.08589582118798
H           2.12046076681978    0.30563223224391   -0.08148332892121
H           1.77162105221691    1.66972457216277    0.53175724682442
O          -2.25732561826537   -1.79471474522156    0.71326567142503
H          -1.88386606101028   -1.18476577803836    1.36379119114925
H          -1.60316910176447   -2.51326010140307    0.70529821553571
O           1.41811304545537    2.05515239572483   -2.44267983593810
H           1.94384743945766    1.76715623071821   -1.65756090042999
H           1.68409587355680    2.95494459656749   -2.63304880386186
O          -2.85325047040951   -0.48825117283700   -1.52926123638969
H          -2.96926560316869   -1.14451340981681   -2.21780152320587
H          -2.75581173627882   -0.99222960933528   -0.68661779917363
N          -0.54330129515496    0.79559033022652   -1.09937791183358
H          -1.47359057738112    0.43651823865331   -1.41039467018628
H          -0.00835140543795    1.29965884399611   -1.83260483036671
H          -0.62833162017063    1.40493909348746   -0.27269399532509
H           0.04169152418774   -0.02403765986739   -0.78421032581113
