    26
        -50.45928480  Gyration_radius:  2.49673621747 Dipole_moment: 3.683
 S          -2.03242408540504   -0.52280181185742    1.08335062913383
O          -1.96193963488973    0.94121017553222    1.11979800304278
O          -1.97537374663741   -1.05060798916670   -0.24877408379681
O          -1.04266462642406   -1.11457563489429    1.98293705554645
O          -3.45087744382407   -0.90183297913971    1.68710492565603
H          -3.41413873123970   -0.54987985273853    2.57120693894403
H           0.20930245397251    0.19270486136505    2.53954424957731
O           1.83020656227616    1.26965806353745    0.15233373743692
H           2.41147053957226    2.02527650783216    0.25322001468009
O           2.54934787036351   -0.14828942883165   -2.19233771642764
H           2.35218966860716    0.40929185819177   -1.42252704070963
H           3.10276566570300   -0.86288858943739   -1.87145629416108
O          -0.69704948591949    1.55240610972058   -1.12310683036532
H           0.17889024954508    1.69114893437727   -0.73002962713580
H          -1.30276208684411    1.38162060274878   -0.36885396828900
O           0.36452472375310    1.11866156857866    2.29288839911229
H          -0.51412177487144    1.36159740493694    1.93072759201573
H           1.31390856159672    1.21952520890052    1.01099969795118
O           0.86824030859987   -1.62812139938655    0.25843175057011
H           0.13092667148208   -1.59994257653996    0.90920473447559
H           1.40855729270456   -0.85267628145651    0.44423482158516
N          -0.06812997599464   -0.80253359554924   -2.09571689504138
H           0.83894655492843   -0.64862150557827   -2.56552818907714
H          -0.74788567111403   -1.32718724214315   -2.63347219450853
H           0.12621720594332   -1.29513168553981   -1.17967518294415
H          -0.47812709588703    0.14198927653090   -1.80450452725161
