    26
        -50.45901334  Gyration_radius:  2.48468996038 Dipole_moment: 8.027
 S           0.58081170819588   -2.33900972848484    0.60180364071792
O           0.74491280140932   -2.33211396546978   -0.85405933763659
O           0.37831273971928   -3.60936923570552    1.20300560789842
O           1.93711281578165   -1.73563878666552    1.17358678278637
O          -0.44700911016201   -1.33519017984730    0.97322787457672
H           0.01985192361778   -0.08200674846765    1.66207507798342
H           2.11004873833206   -0.98402238991166    0.59086972738800
O           0.33494042142409    0.79774217408900    2.06179737927278
H           0.46391100505366    0.61779399329839    2.99409273816205
O           2.24386439721743    0.82625655788858    0.18917980606307
H           3.10241024076478    1.13297203655986    0.48449639525621
H           1.61735456186485    0.94389004369250    0.93770531532493
O          -1.34266973639487    2.17282803241246    0.43529772283906
H          -1.69938929959964    2.96390262998375    0.84080957609949
H          -0.77580760836250    1.73681971743731    1.10293586099447
O           0.40077818889281    1.68555787060516   -1.69661946468873
H          -0.24756889719744    2.00718394023918   -1.04859019510816
H           1.17908790864942    1.42342815176900   -1.17871731799196
O          -2.55789447364057   -0.28999832912336   -0.24808243696141
H          -1.95700928869497   -0.80340928191455    0.33127640863208
H          -2.37669168059090    0.63692816950020   -0.03104097357584
N          -0.75026444363235   -0.68731202042059   -2.13700901843945
H          -1.61421739237827   -0.57752579709891   -1.53656722280058
H          -0.97262147561794   -1.00530402579008   -3.07287159609019
H          -0.25557437209991    0.24004514266639   -2.14534088095184
H          -0.11667967265594   -1.40444799145574   -1.63326147971825
