    26
        -50.46474649  Gyration_radius:  2.50707139924 Dipole_moment: 5.229
 S          -0.69457958950046   -1.38650016861402    1.21912196388551
O          -0.54906429996686   -1.62034994000782   -0.22990429463321
O           0.40260720553888   -1.93097344452466    1.96170149081281
O          -0.83835804705394    0.06180291228464    1.46786916475357
O          -2.03332831127516   -2.04607921917337    1.65513019843028
H          -2.67396106089387   -1.74050489624173    0.96865556557753
H           0.70455028800933    0.47091794514129    1.63410377712594
O           1.68437732468567    0.62071925914770    1.60997819999371
H           2.00417426521367    0.17770658207392    2.39962665868480
O           0.54741551729256    2.21926718055062   -0.77004708999575
H          -0.40641009375296    2.01772849831699   -0.74684487995506
H           0.89406576025398    1.97642320554516    0.09457435627561
O          -3.13818059089520   -1.04724540701888   -0.51763723384281
H          -2.27581177650808   -1.36276358586516   -0.83279599537915
H          -3.06991510453007   -0.08041671568544   -0.55925819936987
O           2.03221363144999    0.85293543287653   -2.48353578857991
H           2.77074665684955    1.41696443786267   -2.71726702963443
H           1.40313739254724    1.42091804156387   -1.97359874570860
O          -2.08810609046997    1.54747745686500   -0.23172020517178
H          -1.64120519906880    0.97636837208995    0.44595788560810
H          -2.53912982185372    2.23814995475260    0.25712617653128
N           1.93112727826417   -0.96853813256964   -0.54253025224384
H           0.91973965861668   -1.32272019253317   -0.52306261533285
H           2.06992731257075   -0.36848460515804   -1.39529514771731
H           2.01247978675480   -0.36881789685063    0.31805763007393
H           2.57148792769030   -1.75398509478864   -0.50840560012117
