    26
        -50.46708355  Gyration_radius:  2.47472301811 Dipole_moment: 2.591
 S           0.38112637171299   -0.25463859368373    2.00090232931870
O           0.93557866452450   -0.84400950505532    0.78500567381360
O           0.20398536058521   -1.17667173703747    3.08013004160137
O           1.48857444030384    0.80291503143197    2.49279250079187
O          -0.77807218230799    0.57370263712124    1.67836296222677
H           0.16440642742605    1.64868216758609    0.75005887974886
H           1.92342776305045    0.36447612283783    3.21819332371027
O           0.60370269350982    2.25462367039804    0.12104774643053
H           1.25697696694170    2.72394228330842    0.64306432858311
O           2.06462162753837    0.42703205380265   -1.34025885383700
H           1.59795302977571    1.22857622365017   -1.04590689506019
H           1.95237516988948   -0.18139101640997   -0.59238774374800
O          -2.00964240753425    1.32607373735827   -0.64328986883383
H          -1.88484890580632    1.17216786521271    0.30787748015370
H          -1.35818084037781    2.00149811743851   -0.86321855463378
O           0.71978846605456   -0.83400507506048   -3.25232741890960
H           0.63099475727183   -0.25908666977533   -4.01320432576663
H           1.35139859325850   -0.38664250528675   -2.63516307173859
O          -1.79711585572149   -1.96172437740937    1.30922356790154
H          -1.25184358052603   -2.34490341335721    2.00296480953332
H          -1.82483553719603   -1.02374611090197    1.53001443556506
N          -0.88754655558663   -1.06628649393018   -1.13024699119052
H          -1.42200756824209   -0.16226964774073   -1.06747670230382
H          -0.41500902368569   -1.14703908764392   -2.05886531204967
H          -0.14582383829839   -1.03459853296227   -0.37858918666507
H          -1.49998406657059   -1.84667713390502   -0.89870316466942
