    26
        -50.47166910  Gyration_radius:  2.418237261 Dipole_moment: 3.981
 S          -0.67084296442682   -0.57716455808493    0.28609405097450
O          -1.22498700534956   -1.60469991366871   -0.56078817328582
O           0.19285881298902   -1.10546274594979    1.34287549834453
O           0.02358896581531    0.45875425986209   -0.48888097871393
O          -1.81870384904053    0.15176167429749    1.05147598819507
H          -2.51748924315869    0.41902872634422    0.38436519358094
H           1.75026218084298    0.37828609903650   -0.93654923140508
O           2.66639593152350    0.07669120356929   -0.78716990878661
H           2.59248304701749   -0.89456418203864   -0.84976098575004
O           0.23337824359460    2.29401921538109    1.39052884853130
H           0.10185171418226    1.75711731073718    0.57894707477054
H          -0.57147059595775    2.17083424073510    1.89943043840153
O           1.57217026337224   -2.40187405252062   -0.58074041044258
H           1.08290691880112   -2.12921498963052    0.21233942679455
H           0.89341574039131   -2.68266063973481   -1.19923642949945
O          -3.52311408085627    0.73862960453187   -0.79864875409664
H          -2.95590381102138    0.56745094681700   -1.59465679188033
H          -4.21250203822514    0.07115507885091   -0.81708992078108
O          -1.74900371275041   -0.01096691024400   -2.59546368131564
H          -1.00020017901350    0.57743976835869   -2.45579603055062
H          -1.56943822687012   -0.76971139865687   -2.00230929422042
N           2.17867467046996    0.51338948820056    1.73890528339177
H           2.85107353463691    0.41053751736109    2.49019284616708
H           1.41986508960133   -0.23223256185450    1.75132956910686
H           1.64623698977325    1.41246863337986    1.77845576810060
H           2.60849362366534    0.41098818490826    0.76215060437478
