    26
        -50.46251635  Gyration_radius:  2.42254756195 Dipole_moment: 9.644
 S          -0.04150841970714   -1.79270520541434    0.85631215334821
O          -0.49164451998218   -2.14452602262493   -0.48876314743264
O           1.16200784040842   -2.47463069296864    1.26472128178839
O           0.11914451494826   -0.33923517132217    0.97233511329791
O          -1.17818193034709   -2.19063760555681    1.86194653939677
H          -1.96283168430704   -1.76787805261611    1.47033566469308
H          -0.14868826794040    1.18441772404959    0.91041955888551
O          -0.21935509823340    2.17070861700969    0.77413399880028
H          -0.45422156221314    2.53130655410595    1.63028906051670
O           2.99808921457673   -0.69532138111105    0.87896718870269
H           3.12418094338976   -0.38312906988564    1.77735453962194
H           2.34435465496507   -1.44103070049671    0.96867480566834
O          -2.80026441042935   -0.99729572629090    0.09084751994615
H          -2.12924245536540   -1.52762144082056   -0.37547089195255
H          -2.69509639834555   -0.10146253008520   -0.25840278283109
O           0.02187738417460   -0.15928425224821   -2.08438976586085
H          -0.77797335643719    0.36940488154556   -1.92716411123404
H          -0.12149260744914   -0.99004447343728   -1.56266583673708
O          -2.02986918142972    1.47966075440632   -1.12450283666515
H          -1.43557716637323    1.84574853197022   -0.43827300702897
H          -2.54767976961958    2.20415357218784   -1.47744052742281
N           1.87632867870239    1.06881664943871   -0.75080544618154
H           2.58040534987919    1.51060245659478   -1.33198764512827
H           1.34922434097796    1.75180000451703   -0.19513187741453
H           1.14209733336597    0.53129568637806   -1.35186190869239
H           2.31591655279072    0.35688689267140   -0.08947766008392
