    26
        -50.46797401  Gyration_radius:  2.45612337934 Dipole_moment: 2.678
 S           1.75531717687233   -0.32542321254257   -0.16479056806029
O           1.49293517912003    1.10367090987260   -0.32767422464300
O           0.84106964597358   -0.92282829039588    0.78578726411101
O           1.81665759136115   -1.01347684658826   -1.43286442953652
O           3.19343193950941   -0.45082357125943    0.48859380715278
H           3.78448810281865   -0.37049172765184   -0.25304666944087
H           0.11394970223438   -1.04083811782943   -1.73268261385796
O          -0.77774037168219   -0.70641783464347   -1.95689126471098
H          -0.58851292944521   -0.05102013970043   -2.65112579416962
O           0.65611465739531    1.39936123897807   -2.88478828321658
H           1.33593862643006    1.03647824991728   -3.45514598181439
H           1.03773670946406    1.38807998601109   -1.98583001685522
O           0.19424074813742    0.20136832648830    3.09865541980282
H           0.47983400282206   -0.39098903459050    3.79561093982148
H           0.53346636211676   -0.18039947777545    2.26216311462368
O          -2.25603438042321    0.25783261610003    1.99420492298478
H          -1.48636555632591    0.28692099413047    2.59981907898846
H          -2.26540144933680   -0.65375672203839    1.63391906395519
O          -1.66094067046357   -1.95617554693166    0.57239651186578
H          -0.71652926105491   -1.76089209299794    0.70065687064922
H          -1.79534944724384   -1.92806402191843   -0.37915456690566
N          -1.15109039382258    1.23965331251616   -0.13856924956161
H          -1.64867322805393    0.93531382255774    0.77787887646847
H          -1.55195610927354    2.08834535678502   -0.52497014633534
H          -0.12525318612796    1.36215799516025    0.01162356439193
H          -1.21133345101004    0.45241379834440   -0.83377564571620
