    26
        -50.45891244  Gyration_radius:  2.55096577553 Dipole_moment: 7.498
 S           0.59135257119174   -1.65463185099743    1.22966536268696
O           1.29971222115388   -1.17627677403047    0.02389047686944
O           1.40625560762092   -2.35508867048094    2.15357029640185
O          -0.15066306593780   -0.51156296706235    1.80175447776561
O          -0.52009373987400   -2.63607629718001    0.68959999345892
H          -1.09772071700445   -2.11422528298725    0.10849518745892
H           0.29734512229093    0.98583342759663    1.45864903317954
O           0.47631518501864    1.90173459382204    1.11754318475155
H           0.55327330101445    2.46444461492131    1.88844914084278
O           2.72835867848945    1.12871460202831   -0.38442007738945
H           2.11241980722157    1.61531458377123    0.18520480158428
H           2.52599051482916    0.19326504631485   -0.21491161044721
O          -2.73947074487476   -0.30927722530833    1.68400814317931
H          -2.96004386129978    0.54853533593672    2.04946626013539
H          -1.77668821089563   -0.44803067146896    1.86636499479609
O           1.69840980655560    1.38321855489602   -2.82042593236934
H           2.19251882562344    0.82694580494979   -3.42390002149494
H           2.22313947453764    1.40540227349100   -1.97979635310202
O          -2.35265662981043   -1.16104862176815   -0.76230630041168
H          -2.64300183982207   -0.80257024518445    0.11374384912819
H          -3.01069297739483   -1.80937151103630   -1.01805029949575
N          -0.20370211658998    0.51744508871097   -1.17470658897709
H           0.41832094280230   -0.23562017059317   -0.69725583897443
H          -1.11590861349785    0.10272291749550   -1.37864218042491
H          -0.27766105026325    1.28820935315200   -0.50236170483435
H           0.32489152887491    0.85199409091494   -2.01362829429177
