    26
        -50.47330250  Gyration_radius:  2.4295939289 Dipole_moment: 2.011
 S           0.42780481011892    0.57355789713259   -2.08183999604828
O           1.44635236683599    0.75169820524290   -1.05629647999978
O           0.56992454232430   -0.63711190394461   -2.83905899635642
O          -0.91055773276240    0.74329204327692   -1.51319113057428
O           0.60299137952515    1.77174660922661   -3.11236188339613
H           1.00695545859375    1.32826938613013   -3.85101870380626
H          -1.38564942736879    1.36933816871642   -0.11598050083911
O          -1.67089239296387    1.67891724068003    0.78108222029138
H          -2.39281657776560    2.29099432752487    0.63276096515411
O          -1.05104999048668   -1.80560137438294   -0.86528060441516
H          -1.04144449510573   -2.31008421790456   -1.68194247882353
H          -1.04747404900559   -0.86802407132277   -1.15560995088268
O           1.02584532172310    1.80325308915481    1.35390530221347
H           1.29360847123879    1.55281449255139    0.44356342378630
H           0.07814302326866    2.00507070709269    1.28751873429351
O           1.59683887716335   -1.72333105505134   -0.09481909247829
H           1.75403409931097   -0.87690298369103   -0.55804708237880
H           0.72598590646385   -2.01238966486954   -0.42121133998496
O          -1.72775065129842   -0.91507123402787    1.70614100195788
H          -1.87780120154922    0.01706260330854    1.46213268311555
H          -1.68924882336691   -1.39924718697462    0.86777432993050
N           0.86546557243388   -0.67920186621965    2.19817257169973
H           1.01858242426907    0.35897174327880    2.00389855622041
H           1.28383906248044   -0.97111500092446    3.07302298178392
H          -0.17860788567550   -0.84921280421127    2.17526825691595
H           1.27692190160013   -1.19769315979124    1.36141722261760
