    26
        -50.46699462  Gyration_radius:  2.58663645894 Dipole_moment: 1.845
 S          -1.07011590800239   -0.00214002548082    2.11181196506211
O           0.23302831010513   -0.54566907278603    2.46069920381499
O          -1.05497532178568    1.39003120030956    1.75325699519780
O          -1.71418148216033   -0.83653765652956    1.08684412071425
O          -1.97583914640330   -0.13304504215205    3.40762261494712
H          -1.88455021489892   -1.04522511396701    3.66640220165343
H          -0.45758343789140   -1.64032446607065    0.42006856549738
O           0.40481160372512   -1.94026856647388    0.04271165903584
H           0.92139020170522   -2.18880918859469    0.81391931364814
O           1.63842885737145    1.58551968435061    1.78412462586702
H           1.33362082211719    0.74461571959640    2.18528859090189
H           0.87347501657260    2.16192651093040    1.90606444399950
O          -0.48475605107901   -1.11846535688922   -2.62941153452578
H          -1.12773970663685   -0.48531877492991   -2.28674861173170
H          -0.26864444219179   -1.70170821797315   -1.89242940227631
O           1.73341140163878    0.32328148674389   -3.20101667924380
H           0.91323858339840   -0.21645533569853   -3.18501173828837
H           2.33958138662252   -0.11481163977367   -3.79831407020622
O          -1.65745872491289    0.87281725525231   -0.89936257269447
H          -1.97020367316449    1.69814624357509   -0.52095470908678
H          -1.80960118768778    0.20819397851357   -0.18776656739906
N           1.04064026573926    0.61575173213999   -0.61297282453210
H           1.43629992905180    1.11470838384798    0.22774841117895
H           0.97760470021616   -0.40460024343494   -0.39134678968181
H           0.05503922668486    0.92324615433639   -0.77196060086888
H           1.57507899186866    0.73514035116107   -1.48926659098377
