    26
        -50.46037832  Gyration_radius:  2.48802116524 Dipole_moment: 2.200
 S          -0.46713145381592   -1.35839520712740    1.70449881756324
O           0.44934646506212   -1.87201378364917    0.70257999504941
O          -1.12871211144589   -2.33158054265186    2.50999792972195
O           0.46019645747889   -0.51344783702861    2.73642540300276
O          -1.34010832913555   -0.34105807210564    1.11262829138588
H          -1.02848451261670    1.23302736350280    1.07125137644831
H           0.37133721674788   -1.07003953846627    3.50244263268308
O          -0.82278899756158    2.19292204238210    0.93693392663591
H          -1.49743561700153    2.68022947953515    1.41127349314650
O           1.82595869853906    1.59774762489070    1.44459244788684
H           1.00171267855460    2.09033765089301    1.29111352052010
H           1.58496960424900    0.91134386390502    2.08040120494396
O          -1.58275471240683   -1.21142804846214   -1.37679123845962
H          -1.50982173628365   -0.92014079632656   -0.44251968648350
H          -1.83867230061382   -2.13405738454125   -1.33614144344015
O           0.71489369627308   -1.17343872272368   -3.02563395004148
H           0.38285886873008   -0.93971618797604   -3.89302388608180
H          -0.06622339074017   -1.27485811383868   -2.45705948466418
O          -0.62797769318927    1.44735332650136   -1.71251137669285
H          -1.26574492778433    0.72767943678302   -1.79094009407192
H          -0.81801873314677    1.90122614027247   -0.87359426228353
N           1.46281314394508    0.07655488966984   -0.72628203334930
H           2.12003304400093   -0.26169116613495   -1.42459524044296
H           1.88021759204980    0.70363005701759   -0.00190051633753
H           0.69066940462900    0.59823098684161   -1.22365050760895
H           1.04886762334580   -0.75841744068063   -0.21949531841516
