    26
        -50.45891250  Gyration_radius:  2.55125230651 Dipole_moment: 7.497
 S           0.66050669316384   -1.62959280474354    1.22767325538659
O           1.31530096556528   -1.16035231125350   -0.01144798133389
O           1.51910034254705   -2.30764314402765    2.12839478421392
O          -0.07202922525168   -0.48695045526627    1.81278036239770
O          -0.45970333155248   -2.63109217699798    0.74524896189409
H          -1.06759733754850   -2.12281891775369    0.18337218115674
H           0.34435304891797    1.01029288159189    1.43052560939550
O           0.49842478221532    1.92299300801469    1.06933530074398
H           0.59780961801147    2.49841829022367    1.82818502576013
O           2.69739100174396    1.15460295297451   -0.51212786187198
H           2.09951330453697    1.64254618158891    0.07528231289124
H           2.51360165204532    0.21955328260840   -0.32062385656598
O          -2.66593050570079   -0.31750091291618    1.80074896327268
H          -2.88238921475663    0.54206965750837    2.16459234264543
H          -1.69474232586081   -0.44202451277005    1.94479703160760
O           1.56625402571240    1.36005585184455   -2.90777159211135
H           2.04223150424356    0.80024672244630   -3.52243020995222
H           2.12438197124991    1.40139176607943   -2.08975344789303
O          -2.36855951345653   -1.19627542241309   -0.64845599928356
H          -2.62723591937490   -0.82952248338090    0.23392264657156
H          -3.02831404544676   -1.85567038371529   -0.86887513120656
N          -0.25631358104982    0.49717617398832   -1.17294201367217
H           0.39374379704442   -0.24124476997806   -0.71046665661130
H          -1.17117576222327    0.06914484169114   -1.33293171979883
H          -0.31193145470871    1.27706923730822   -0.50933794361609
H           0.23330950993595    0.82512744734923   -2.03769435402761
