    26
        -50.45723649  Gyration_radius:  2.41419230286 Dipole_moment: 6.635
 S          -0.15004012716103    1.96272665036673   -0.68386611755614
O           0.04067222376917    0.74995199009586   -1.48902011980361
O          -0.85714448880179    3.00356718785202   -1.34665954559966
O          -1.07289093496202    1.44621906759602    0.55622763916946
O           1.08057862729943    2.33371787351658   -0.00037340497098
H           2.17163106294499    1.24210513357097    0.19013110946834
H          -1.65305625638401    0.72995618758324    0.21930946969991
O           2.78936418013293    0.52713955792644    0.53669843199554
H           3.63329435252532    0.95995919992358    0.67092391923291
O          -1.66801337026168   -0.87502692725106   -2.58467348631449
H          -1.10968539153420   -1.62958429068561   -2.78624352917280
H          -1.04560307985050   -0.13962843163378   -2.37451473222018
O          -0.39163086814797   -2.00501491815481    1.16231189409915
H          -1.24298379880437   -1.70395954222091    0.80753286261813
H           0.22523029410898   -2.00735477079207    0.38452252804417
O          -2.50305819621952   -0.69906925606916   -0.12212883117917
H          -3.45137919176455   -0.56214789618450   -0.10745083112211
H          -2.25512322707368   -0.84034919952419   -1.07957401126754
O           1.26806643529472   -1.46399260955692   -0.80382398029802
H           2.10100577382532   -1.13872039924163   -0.44495950991128
H           0.82344614578700   -0.64925907067222   -1.13491768512239
N           0.66449437458788    0.15753725034181    2.12093823957686
H           1.61588198264247    0.22668455091195    1.68685705606493
H           0.69367509913748    0.32192389120972    3.12099050122298
H           0.05958366987459    0.85943524879678    1.63460066515545
H           0.23368469903096   -0.80681648770407    1.86716146819023
