    26
        -50.46874293  Gyration_radius:  2.40073737853 Dipole_moment: 5.290
 S           0.44206292140278   -1.69674860364665   -0.31920611209740
O          -0.67930756225225   -0.98548353954603   -0.96848626910579
O           1.52230538658453   -1.90726105265945   -1.23701110459256
O           0.86320088484069   -0.90875797244265    0.86135776546321
O          -0.08847961152085   -3.05101292316552    0.19201414609468
H          -0.66037686153946   -2.82514693517978    0.98067751111539
H           0.27278249878062    0.54684733993020    1.24014499254315
O          -0.08947578068291    1.43699326953219    1.48339376914897
H           0.56061413869817    1.83907960465978    2.06150703146206
O           2.73314212290204    0.39634712901066   -0.50727235294606
H           3.13165180453581   -0.34190625079904   -0.98146879827458
H           2.16279408600825   -0.05117675063931    0.15304139213696
O          -2.41525233809916   -0.02809250097923    0.81593304124092
H          -1.86483959400682    0.65824339497389    1.21240260968578
H          -1.89852286357114   -0.38132761406648    0.06270910797499
O          -0.89763745022997    2.71079594940078   -0.74232227234973
H          -0.59643131992567    2.37343540989835    0.12900072615370
H          -1.82107045446887    2.45648370103350   -0.81359389093147
O          -1.32849074846269   -2.04199049014239    2.21486486506132
H          -1.94346353531965   -1.38791992293339    1.80865981305721
H          -0.52133113710282   -1.55428288235011    2.41369188363803
N           0.63257348275180    0.96639946669860   -2.04369730950298
H           0.06129950475360    0.10922745930565   -1.75715309187495
H           0.77631918850924    0.99428425977657   -3.04710924589692
H           0.09533672144029    1.79980710625009   -1.68939935240737
H           1.55059651592659    0.87316333824162   -1.52267886474853
