    26
        -50.45490013  Gyration_radius:  2.5192787177 Dipole_moment: 4.591
 S          -0.09023619836921    1.78331163515249    0.48468582424146
O          -0.27123895287700    0.88769151505366    1.62206047007785
O          -0.39297646328539    3.15148257449352    0.72981408197719
O           1.23622707414236    1.55417780269504   -0.13047245345202
O          -1.06877940450884    1.23471330629756   -0.65584971685754
H          -1.70332054565755    0.61331003518750   -0.24878300993829
H           1.52148373974390    0.08960777263165    0.55633299567824
O           1.65540405014097   -0.85035502359903    0.83241326576076
H           1.36860076225364   -0.85880629634620    1.74853982686607
O           3.34035475471898   -1.02299779447223   -1.34796129404063
H           2.88764944558048   -1.21358772124736   -0.50867394505373
H           3.95782120501589   -0.31464296908804   -1.15362035978336
O          -2.61816433126478    0.51216369272536    2.63636819277951
H          -1.71653396945833    0.80197420211259    2.34218701048808
H          -2.49128703063033    0.07379212025027    3.47927234051800
O          -0.39073971640498   -1.78231735944473   -0.75184273011855
H          -1.24553367566402   -1.51076703104292   -0.38848565756615
H           0.27124046370839   -1.63903643492944   -0.04780033512902
O          -2.76303170856900   -0.62583165405364    0.28180086477829
H          -2.79809699947329   -0.30159423210498    1.21867849384548
H          -3.63294317417208   -0.47291472337178   -0.09066009912468
N           0.98376836946057   -0.01787226558786   -2.16414648104891
H           0.70627393517203    0.32858025949222   -3.07470459839895
H           0.29869167756048   -0.72934578201725   -1.77885162988633
H           1.93126010057328   -0.45652455424688   -2.15586871954146
H           1.02410658227206    0.76578893555807   -1.43443234697985
