    26
        -50.46641743  Gyration_radius:  2.48302246689 Dipole_moment: 2.510
 S           0.67587682436570   -1.64136582175411    0.81403181840063
O           0.01210358328049   -1.89066349693902   -0.45722993752211
O           1.82390836519620   -0.76772102252414    0.66361942959152
O          -0.26618873334429   -1.20720576177104    1.82993717719546
O           1.25556969301113   -3.03304719490937    1.30455121826343
H           0.47556312904665   -3.55904742916790    1.45309190125551
H           0.38712989327642    0.33774863242225    2.64019919566693
O           1.02502020833302    1.03918889403031    2.43017371626348
H           1.66085494341286    0.56607306292114    1.86598441771972
O          -0.33140508324620    2.26015583813601    0.56265401664180
H           0.18942084101079    1.86289959338220    1.31718470634431
H          -0.04691626250848    3.17227048873806    0.49228553701917
O          -2.28831388611392    0.17051612250314    0.63352884036021
H          -1.66353907071882   -0.43906534109557    1.06656888977019
H          -1.93278022753144    1.05317341611172    0.79060494804256
O           2.52390159239396    0.31923676856958   -1.70362324437040
H           3.33333884092488   -0.08424458803470   -2.01817320260480
H           2.35001231577150   -0.07602172695036   -0.82521271910289
O          -2.73108620870389    0.13209449028672   -2.03332343328067
H          -2.74720281666949    0.14106555387617   -1.05047296650256
H          -2.94354691347560   -0.76777983642579   -2.28573087231781
N          -0.14794883738486    0.50211528122721   -1.52191502750923
H           0.70909160662890    0.64084352804473   -2.06833112410025
H          -1.04613814127230    0.53056346936552   -2.04900578968818
H          -0.09008126727232   -0.46775831630039   -1.09870381344332
H          -0.18664439844340    1.20597539626023   -0.75269367210621
