    26
        -50.46954694  Gyration_radius:  2.49888426324 Dipole_moment: 2.198
 S           1.04741058736699   -1.73611509899771    0.39736056979947
O          -0.41305217676924   -1.74896285899419    0.29947092294314
O           1.66266570461966   -1.50372762719365   -0.88271079442322
O           1.48910128624450   -0.83032152675727    1.44955361653176
O           1.47348387341423   -3.18860935938129    0.86102609183615
H           1.05283464111540   -3.29349844003953    1.70899902089064
H           0.54646945079853    0.46427875074696    1.66791491341249
O           0.00356864520112    1.28985139075252    1.75046752437722
H           0.26440657736593    1.69826831361129    2.57743088763791
O           3.03395226213746    0.68753881799247   -0.32107786256204
H           2.71425667141215   -0.14614453808536   -0.71646328605837
H           2.98215541690446    0.51724788336623    0.62528830531144
O          -2.35938857215654   -0.02483277656805    1.13879329596765
H          -1.84200684916486   -0.81858041487345    0.92569901562575
H          -1.69221881774130    0.61092027989362    1.44399265772371
O           0.73769165673959    1.94335931571546   -0.80665365555879
H           1.67121495153771    1.63093809328350   -0.73808651089027
H           0.40875557702445    1.94211944134191    0.10914557203036
O          -3.15130976510818    0.72851641975900   -1.27346165021148
H          -3.35060370643650    1.66491381421214   -1.22853148628906
H          -3.02307500876452    0.42699936526697   -0.33756602850635
N          -0.65445349695742   -0.06937099674695   -1.75464281137675
H          -1.66155093273520    0.23436631561763   -1.77717095346390
H          -0.33307510547281   -0.43509884738561   -2.64452755549163
H          -0.05201095117855    0.76800753846032   -1.45398303476284
H          -0.55522192939705   -0.81206325498316   -1.02026672448389
