    26
        -50.46929790  Gyration_radius:  2.42416986266 Dipole_moment: 3.376
 S          -0.84763996345782    0.31270865521843   -1.05546971739948
O          -0.87531669662083   -1.09988409462926   -0.64289348580480
O          -1.95734025864681    1.03991283693259   -0.46230165226541
O           0.43708831256649    0.91631100579338   -0.70450705941998
O          -0.99569218742185    0.36328463390046   -2.58949805253368
H          -0.14212132865721   -0.01707294484443   -2.94991099106510
H           0.09387922539275    2.12741537647142    0.44476369015156
O          -0.25465381201174    2.63005240415388    1.20905785811495
H          -1.15717085609513    2.84048195323165    0.95780771704716
O           0.12178308485120    0.54479792453824    2.83663578114285
H           0.88163370738235    0.14803003512493    2.36278907636860
H           0.02988116109930    1.44140481409108    2.44028067888185
O           1.53769847580484   -2.09970240905852   -1.08282309104985
H           0.59966024231030   -1.89156074251882   -0.89593009086752
H           2.02254811718338   -1.68501164339423   -0.35773270352954
O           2.01437759908023   -0.21635740705353    1.03083203086781
H           1.44411581949175    0.19914390144279    0.33661711588026
H           2.80556338174922    0.32426035672914    1.07239158421876
O           1.19606027972387   -0.78546065561658   -3.35245905442491
H           1.00527012910962   -1.46501092886259   -4.00290021156997
H           1.47137602258604   -1.26512838365917   -2.52973572200611
N          -1.91746173299005   -0.49241131424083    1.62875405938812
H          -1.50096054664238   -1.11555286625026    0.89343117270111
H          -2.67198167351993   -0.92608217707612    2.14920552447506
H          -1.10891601909632   -0.12204034127795    2.25685564680069
H          -2.23168045503118    0.29347198937508    1.00673991646287
