    26
        -50.44427413  Gyration_radius:  2.44200464472 Dipole_moment: 5.007
 S           1.51713921722714   -1.33607637098645    0.46791199401308
O           2.08714098373633   -1.54368049522162   -0.83506463940802
O           2.29208917939686   -1.68251951445631    1.60894387330640
O           1.12049049425016    0.16315243399794    0.57151100638390
O           0.17812146970191   -2.09504072962058    0.56143528760753
H          -0.55917785696431   -1.63538441462741    0.01788617046003
H           1.22804340266873    0.65745221470913   -0.29154628214181
O          -1.65958037147901   -0.87710262638170   -0.65839953264337
H          -2.46805546677916   -1.38739209591538   -0.59208347249132
O           0.27045350900971   -0.75329084459871   -2.64638840815601
H           0.94662540433053   -1.26254298695997   -2.15940657814174
H          -0.54602587421767   -0.82262353302053   -2.12693507178411
O           0.11640088762051   -0.74859638419906    3.03980110614267
H          -0.27562840559919   -1.60487178359257    3.22393247866968
H           0.99047419805832   -0.94191594260047    2.67142450286404
O          -0.67517212980463    2.94809168593022   -0.53344001044812
H          -1.25167679728871    3.09930209904857   -1.28456621899060
H           0.13414933136836    2.55665677165293   -0.88855596097472
O           1.37860170253910    1.38307426308083   -1.70444116631242
H           2.30735128911748    1.32746912443263   -1.93861445419581
H           0.91747586213342    0.66041955189278   -2.22523862183910
N          -1.64051907748278    0.82590049369671    1.21110133137313
H          -0.96104290879499    0.44458539666523    1.87054453949769
H          -2.48701939110633    1.05635998950197    1.71501527474588
H          -1.25210273036889    1.68206430397754    0.81595574140576
H          -1.70855590130654   -0.11349060642270    0.10921711104770
