    26
        -50.46386485  Gyration_radius:  2.48006796985 Dipole_moment: 6.311
 S           1.22340219102166   -1.50556732710063    0.82142834598984
O           1.10329404059668   -0.74064391933341   -0.43569179134108
O           1.71012571642969   -2.83003649201040    0.64930178926592
O           2.23559320726118   -0.67775522996278    1.69307598340140
O          -0.06339875637573   -1.44210997037752    1.54174160250791
H          -0.93543308497815   -0.19600205971423    1.62140171808506
H           1.88863501360622    0.23269190886571    1.65053906118461
O          -1.47058776190347    0.65899433597712    1.58904397052351
H          -2.07845449684370    0.61520786638134    2.32854420103040
O           1.39742790464739    1.81180324317751   -1.21261451123703
H           1.34661558112567    2.18982090770455   -0.32766689784343
H           1.48465579131520    0.85315751026677   -1.05434014599661
O          -1.09762777707345   -2.86078094575108   -0.48676085944108
H          -0.38917432852805   -3.45912184026190   -0.73298429262259
H          -0.80807245279614   -2.48858529384769    0.36372536667295
O          -0.78577729268250    1.78197948682165   -2.73581747886813
H          -0.48746482265875    1.68641195321968   -3.64128508760672
H           0.03157365064909    1.93142044496272   -2.19809551853483
O           1.00401246972186    1.76022742012208    1.62424427742907
H           0.06039193257542    1.49433138993609    1.60567312973011
H           1.15615728928915    2.20177831124349    2.46199020420240
N          -1.34539858288126   -0.19805538667131   -1.04376528517287
H          -0.31747717607551   -0.43103698643384   -0.82387033275856
H          -1.34980930861932    0.48798219740784   -1.83276474980584
H          -1.78237502871773   -1.10303634401751   -1.23527329781033
H          -1.73083390810325    0.22692481940529   -0.18977941098004
