    26
        -50.46745651  Gyration_radius:  2.47161988824 Dipole_moment: 4.310
 S           0.80261991548405   -1.56313344632699    0.12275782574428
O           0.92364751507568   -2.34437121914536    1.32176405948497
O           1.14552818787790   -2.20966737887802   -1.11666203709721
O          -0.73535191046191   -1.15542098037471   -0.02465472606762
O           1.49033358141011   -0.25297906596592    0.24385862525698
H           1.13680203211194    0.54934463209847    1.57962544431285
H          -1.01253932248089   -1.07464994055232    0.92341133579128
O           0.81426788815543    1.03994804012518    2.38077833125774
H           1.59320405908084    1.26159900711080    2.89234569743329
O           0.90565866766249   -1.04732422734491   -3.42872044859719
H           0.15283530722042   -1.47047030662147   -3.84525205614571
H           1.08701097589393   -1.57392526466499   -2.60855698490023
O          -0.97391405827310   -1.02446877673634    2.56080391647955
H          -0.42336003965223   -0.25360717036020    2.78366459714979
H          -0.33191984624465   -1.75204395187516    2.45448447597648
O          -1.67196767522014    1.83574197859022    1.47350759499043
H          -0.75662952825886    1.76053205103950    1.78746830356715
H          -2.16846861208787    1.17491851180909    1.96335040580720
O          -1.81956627967436    1.14411352340356   -1.12058012849214
H          -1.85871597530147    1.56701342817769   -0.23536052411660
H          -1.79750965606194    0.19497253243284   -0.93059171182007
N           0.70831186553403    1.06956643613618   -1.84907377308174
H           0.77838503433386    0.36198192109202   -2.62684315454257
H          -0.31871484133509    1.25275102166652   -1.63805308315611
H           1.11830567809947    0.58914966196223   -0.98937101882009
H           1.21174704684336    1.92042894323203   -2.07410097636538
