    26
        -50.44195252  Gyration_radius:  2.57544284236 Dipole_moment: 5.255
 S          -1.17909926575019   -2.22320541618382   -0.22618457640579
O          -1.50658039851274   -0.96912503256823    0.41166541054634
O          -2.24579406976954   -2.99592494022678   -0.73817703840099
O          -0.13237721613336   -1.90547539006329   -1.34806277271129
O          -0.30936147300268   -3.06379781515229    0.73492193555405
H           0.25889044502292   -2.41614156631929    1.23594680661675
H          -0.48308588046373   -1.17798085809472   -1.95461844974961
O           0.68529440361352    1.77087917636336   -1.43425144562790
H           0.99894750707011    2.65297207855573   -1.63628276756866
O           0.79936961235222   -0.92551106048959    1.70551626089914
H           1.44154603176855   -0.69062580041207    0.98985842115628
H          -0.07568121400442   -0.65809389174658    1.36648226128030
O           0.62118355256976    1.49883339321173    3.04495500352696
H           0.60567530005781    1.44874705667359    4.00135154177591
H           0.84308272657316    0.60682159132627    2.72482616464720
O          -0.76627179253277    0.06104757042035   -2.85666565256706
H          -0.36018545239395   -0.05100590400927   -3.71905324817857
H          -0.26226508006511    0.77004881200014   -2.38940430538766
O           2.11296490308834   -0.39282803792065   -0.53067709900671
H           1.65188365964469   -1.09033017349276   -1.01197088562533
H           1.73433757456199    0.44684751253099   -0.85039399590395
N          -0.95073040156377    1.89637766728087    0.56592875708135
H          -1.67450134402074    2.60318238360971    0.56610936420021
H          -1.40451842652861    0.98681907527589    0.52478224034681
H           0.05115974564868    1.86267356258784   -0.62917320421733
H          -0.45388343720732    1.95479599687676    1.45257128369948
