    26
        -50.46260577  Gyration_radius:  2.4325995539 Dipole_moment: 7.607
 S          -0.76467916587257   -1.13843617964384    1.83570336885817
O          -1.23151054781484   -1.72027396607242    0.57529893474154
O          -0.31592670790928   -2.09620131079202    2.78187064519175
O           0.25335122594074   -0.10372109149465    1.51877830016821
O          -1.98034400815818   -0.33540755851188    2.44135800028576
H          -2.10761802903641    0.43477580928187    1.87388011101461
H           1.14734018211084   -1.15119761901186    0.63635283538073
O           1.50326923627223   -1.74740703878221   -0.06130071444165
H           0.95812541376886   -2.53512775836053    0.01730751789536
O           2.34142182173493    1.55505500257819    1.13668510724552
H           1.60822642374198    1.01298184784635    1.47593155190395
H           3.11501211686119    0.98914814649965    1.14679144884335
O          -1.42650299899734    1.47731658914466    0.30603447875043
H          -0.73487075947185    0.92780159603560    0.73567724439232
H          -1.79262492710823    0.94710663486520   -0.41566144872272
O           0.87191523780767    2.25592562158473   -0.99755465219979
H           1.51638382805829    2.17345679206975   -0.26217478049451
H           0.00244238175487    2.32416492499734   -0.55978925982044
O          -1.94250056267158   -0.55643889558045   -1.56045563178713
H          -2.68055747431453   -1.02794495254662   -1.94793116003988
H          -1.70875302396113   -1.05378968041805   -0.71678302849984
N           0.68319323029653   -0.13451739461439   -2.01716229036224
H          -0.34199523364217   -0.31383054665614   -2.05664809710942
H           0.82038369681631    0.87607976166612   -1.64674027063046
H           1.09288492880026   -0.81103332105560   -1.31155643204957
H           1.11393370493947   -0.24848542303282   -2.92791176850596
