    26
        -50.47082116  Gyration_radius:  2.42005952629 Dipole_moment: 3.994
 S           1.30236154599967    0.84862947115994    1.28052082379211
O           2.14261072918093    0.09389509311175    0.37741367827262
O           0.77131957916448    2.05503827996255    0.66808316250131
O           0.26298096932707    0.03775147472645    1.90381698605923
O           2.22049792730082    1.32064718040667    2.48087126496111
H           2.88374477019223    1.83336140279651    2.03210532055759
H          -0.34322850325552   -1.37666193010648    1.40700963421280
O          -0.81815525461224   -2.17007087695083    1.05193383492408
H          -1.00797825581167   -2.72561571696537    1.80917175425708
O           1.10681001488725   -1.96392674991848   -1.01237355578864
H           0.51311716937188   -2.35156813197577   -0.35735230624045
H           1.60084454399394   -1.27150100464324   -0.53125112638878
O           1.29352181473739    1.55303025788544   -1.88022932027401
H           2.06126598359123    0.99214454954697   -1.73218852651847
H           1.05625645171122    1.87048577458048   -0.98696782699270
O          -1.78287035829654    1.49865329597481    1.12113093835258
H          -1.16169588401565    2.15314608494371    0.76853507578983
H          -1.18963301879612    0.94673774606026    1.66889508906198
O          -0.42578994371866   -0.38038758815718   -2.48581016571670
H           0.17049490523969   -1.08438125399459   -2.13270170236320
H           0.11805418678930    0.43920659436293   -2.41560899482294
N          -2.18267109052665   -0.46576890635514   -0.61015297965892
H          -1.85371682366648   -1.26163864974869   -0.03456504957433
H          -2.12124508729456    0.39941770020532    0.00131482102287
H          -1.48614558008478   -0.37345145318820   -1.45607250496059
H          -3.13075079130744   -0.61717263364536   -0.93552833446823
