    26
        -50.47723504  Gyration_radius:  2.39969708517 Dipole_moment: 3.768
 S           0.61130314239701    0.05624314621073    1.61914746997756
O           0.02044233351223   -1.15896438834318    1.04197582599111
O          -0.33354938540038    0.79477115081090    2.41545254972860
O           1.76690378267598   -0.42299910637938    2.56445751517916
O           1.22203707495489    0.86803621104694    0.57232112393549
H          -1.61839089117315    1.23810303011418    1.54839667229060
H           2.28727409912330   -1.00582168059860    1.99415162974422
O          -2.36131236415014    1.50312705744494    0.94772757249037
H          -3.00503667903815    1.94116203981496    1.50726894401221
O          -0.46457452924118    2.37251623991568   -0.84581792398769
H          -1.25212492990309    2.29241318498252   -0.28111634016035
H           0.26497060762544    2.01715940157788   -0.29708133513987
O           2.27481460584069   -2.30181386679030    0.62219128981012
H           1.33462067691872   -2.00663746759364    0.70145556920225
H           2.30385718515374   -3.21166045004038    0.92372320395384
O           1.88563296596212   -0.53184345097295   -1.56004527960179
H           2.18722051309336   -1.35871547976067   -1.16616136582738
H           1.77954798305951    0.07366194420061   -0.79262626078102
O          -2.14514878840400   -0.86778894025901   -0.44525116854587
H          -1.41176788395853   -1.13721674784393    0.14826008352223
H          -2.50448454029759   -0.07126473774079   -0.02012337886311
N          -0.57557691296020    0.17342374229463   -2.27718295840910
H           0.38511149849589   -0.23510425597292   -2.13232788575059
H          -0.83914150614806    0.17280469556109   -3.25544170233581
H          -1.27214873725910   -0.35272568943287   -1.66521154844793
H          -0.54047932080085    1.15913442777700   -1.86814228199435
