    26
        -50.46152692  Gyration_radius:  2.59924145412 Dipole_moment: 7.389
 S           0.62157281514724    0.38124641776221   -0.02287005180802
O           1.56389980459884   -0.73441984738282    0.12223608695607
O          -0.08173180388904    0.62642817767697    1.23683776736410
O           1.21627745662316    1.57306948396490   -0.57272734576694
O          -0.42824909563628   -0.19212907132380   -1.02418296296513
O           2.23414823174191   -2.89998463032888    1.71730147276443
H           2.21110557874531   -2.03862312555478    1.26763905510280
H           3.11409871124344   -2.98818445900085    2.08509582811037
O           0.41062936766060    2.65508698248931   -2.86108514682199
H           0.89643606133784    2.23118076851420   -3.56948888952452
H           0.80511788149329    2.32517326473288   -2.02603001327497
O          -1.64792398630348   -1.30893869711811    1.91110405815891
H          -1.57174506240099   -1.38214219101307    2.86447248042492
H          -1.14021822624869   -0.48876291122510    1.66466757264481
O          -1.00125871026480    3.02403836737260    0.53095979893211
H          -0.70415288502790    2.19430120504526    0.95057840002459
H          -0.19915106743972    3.42484435490052    0.18422277917044
O          -1.85528742051974    1.78804652195883   -1.67609314761194
H          -1.77836425648048    2.33139935237088   -0.85855641275543
H          -1.23647788913330    2.20554942747345   -2.30714204844436
H          -1.06516593066744    0.56537324063130   -1.30184875226811
N          -0.08995017910883   -2.69583307192582    0.32255527625927
H           0.56843022529763   -1.87251633318659    0.08915787866429
H          -0.51387048175947   -3.06978649141607   -0.51983154018845
H           0.49224202506434   -3.37743983885078    0.81696544963729
H          -0.82041116406865   -2.27697691657277    0.97606240721359
