    26
        -50.45917851  Gyration_radius:  2.59244335892 Dipole_moment: 3.328
 S           1.58882418231647   -1.12185157094785    0.70091144615391
O           0.79034779504937   -0.60497695117156    1.79605681949373
O           2.47056338230069   -2.20248505987308    0.99604924864177
O           0.47774620945812   -1.74531405270243   -0.31716008039154
O           2.18548607823065   -0.02517493404833   -0.06418598421868
H           1.59996398071829    1.39009439230748    0.62535353731150
H           0.91908979901537   -2.51509551299985   -0.66107592990313
O           0.98070162445711    2.02713011081000    1.04611071567211
H           0.90380402370640    1.71301390821592    1.95177373028487
O           1.75640140598207    0.06379772071828   -2.64706594609172
H           1.92845259267173    0.00174258978273   -1.67867383246467
H           2.59357837534030    0.30823083925814   -3.04432738874885
O          -1.55410604354807   -1.60587346846619    2.39305563669892
H          -0.65285950711873   -1.28756560150903    2.14959024817518
H          -1.55531266498620   -1.66423722227903    3.34980898443743
O          -0.49791883357711    1.50462779534995   -2.81100809623388
H          -0.19029671324857    2.40751890469127   -2.90817400436513
H           0.29859793081177    0.93194912137265   -2.88426450531978
O          -3.14508995728458    0.06960233607554    1.08193715900156
H          -2.62689429168107   -0.55070389263703    1.64972799480712
H          -3.82825925653171   -0.45889173599626    0.66686719138234
N          -0.90477763962706    0.67751737409100   -0.28259545749653
H          -1.84740847776068    0.58487642308181    0.16149986464645
H          -0.94309816670311    1.03951522377771   -1.26340992325445
H          -0.28430331262973    1.31096943012480    0.29015002885215
H          -0.46323251535987   -0.24841615702586   -0.29695146706948
