    26
        -50.46298821  Gyration_radius:  2.36977599825 Dipole_moment: 8.249
 S          -0.76973758615889   -1.54671984981978    0.39049028222328
O           0.35835317592261   -2.43369181666222    0.21700221277666
O          -1.76193862437251   -1.97524009645798    1.34027648898290
O          -0.16112911605294   -0.17560422124188    0.97058435176549
O          -1.34922089254823   -1.10882073659318   -0.88436222681981
H          -0.47155143842903   -0.34536848794294   -1.92947950036941
H           0.23573723681674   -0.45398494270765    1.81651385241285
O           0.04215266550717    0.25803937323533   -2.54146921177843
H          -0.34399887866002    0.13336657150433   -3.40984019042410
O           2.04515679952529    1.58028813986874    0.51799216688046
H           2.08630957437510    0.65561812209260    0.15618316240873
H           2.87707972059634    1.99286940643649    0.28028691848444
O           2.10360821045947   -0.70718955640630   -0.80000473489761
H           1.64058351537264   -0.45607706034427   -1.60871703982251
H           1.55946539347162   -1.42179568585748   -0.40709561657405
O          -2.53150973506204    0.96453159860646    0.19848153172176
H          -2.26243294644890    0.13756530682505   -0.26167764853831
H          -2.66446610345959    0.69595758001799    1.11047489773967
O           0.38219980512457   -1.85280997274791    2.94729722170296
H           0.91868867704564   -2.43209869411013    2.39575349826373
H          -0.53418888292290   -2.06984981194131    2.70518949201912
N          -0.28186345283305    2.14319548336647   -0.64041461036718
H          -0.15361583155314    1.56783956420870   -1.50482945586813
H          -0.40876999651175    3.12640767313582   -0.85572671525538
H          -1.13537611205554    1.74595647567367   -0.15424751273282
H           0.58046484283041    1.97761564785687   -0.04866160393303
