    26
        -50.46400449  Gyration_radius:  2.43643205448 Dipole_moment: 6.311
 S          -0.85250835767035    0.51549755145115    2.02119943784682
O          -1.49499671775662    0.52365934122421    0.70474467893332
O           0.00871985157319   -0.62915203943396    2.20266601029653
O          -0.21827990430589    1.77424868720911    2.33959123422153
O          -2.06349196864987    0.34856792281567    3.03996747901899
H          -1.61534543588662    0.43319834589477    3.87468478718888
H           1.02335346833476    1.57952034040795    1.24254846782278
O           1.54511750393961    1.52321302219908    0.41455157692154
H           1.01175172648172    1.99718989150748   -0.23667504073882
O           0.58614374420737   -2.57492202218687    0.50504743257878
H           1.31175177234800   -2.12908402587673    0.04603835204180
H           0.39147740811853   -1.98608508300298    1.26375600197464
O          -1.50922307793024   -1.66579744755877   -0.76743568549994
H          -1.69098897521457   -0.92569252085872   -0.14572047377519
H          -0.81884723027860   -2.20784612013516   -0.29696667503672
O           2.24094769039118   -0.67989198847771   -0.79909875749085
H           3.19790434673960   -0.68264167508153   -0.83981733135246
H           1.99528024121511    0.09602303224838   -0.22353185220379
O          -0.69860206205721    2.05410527876249   -1.21348383294889
H          -1.34726412348463    2.74388796518048   -1.35855395002146
H          -1.02995272098527    1.53119545989436   -0.43139248648038
N           0.01766687833464   -0.32209520746494   -2.30789497699705
H          -0.01276875722455   -0.51625974719519   -3.30163183585119
H          -0.24410693892368    0.66099024901907   -2.09662831187689
H          -0.69392570708766   -0.95958752293747   -1.72611767487620
H           0.96018736576895   -0.50224167760634   -1.90984657368918
