    26
        -50.45909912  Gyration_radius:  2.47745941319 Dipole_moment: 8.425
 S           1.33777183854208   -2.06212414932519   -0.31069830091988
O           0.66015709282658   -1.88337409860086   -1.60800528977403
O           1.60747772059741   -3.41451945933918    0.03312436630669
O           2.69641027237191   -1.28273037208396   -0.42686410242928
O           0.56414737934326   -1.33293748382920    0.72389944024124
H          -0.95307508565191   -1.23779005490516    0.89385108349118
H           2.42749101426093   -0.36851752817089   -0.62768508736902
O          -1.94626830095301   -1.07847980492827    0.97512337990278
H          -2.26583453161091   -1.76614515901861    1.56061676606495
O           1.23753684829232    0.95292544223253    1.82996326402574
H           0.35041766255398    1.33276266042705    1.90598355126485
H           1.08353931753911    0.01200511266228    1.58877090134585
O          -1.49369178002454    1.54950449179940    1.48952374262364
H          -1.71724630691596    0.60225459427040    1.36731270230484
H          -2.19467818106945    1.94057268921189    2.01198153652322
O           2.02365746956308    1.34263146828814   -0.60556089156171
H           2.84426580172770    1.83268133135163   -0.67457282081824
H           1.80336189070460    1.28573145023971    0.37270832994289
O          -0.58833206701913    1.99285244672061   -1.10227101690761
H          -0.88214596266646    2.04061103427703   -0.17692457580582
H           0.37687323557054    1.86005931562103   -1.06724478928241
N          -1.42510137462307   -0.45667823269168   -1.64745769836505
H          -1.13025785607369    0.55713031107578   -1.54263979641860
H          -1.94872671562332   -0.73792007049277   -0.80837484253289
H          -1.96206904893823   -0.60514679742972   -2.49374724980207
H          -0.50568035274877   -1.07535912744688   -1.66081258204773
