    26
        -50.46153963  Gyration_radius:  2.61664078364 Dipole_moment: 3.726
 S          -1.23461622427665   -1.26907814942672    1.99313580757289
O          -1.93171960847689   -0.55325336328366    0.94253901717103
O          -1.82998740989937   -1.22653609744798    3.29007078703925
O          -1.26997752029072   -2.82364137070994    1.54769605341587
O           0.19622900690169   -0.92403694274246    1.96932015705347
H           0.77525733177417    0.53499301882053    1.65166736965977
H          -1.65370292152415   -3.21511197765416    2.32519851446142
O           1.12627119870085    1.41897594765934    1.36795068294290
H           1.59194751277285    1.77142939047546    2.12767648429359
O           2.40908522302570    0.21552758845032   -0.76840746079894
H           1.97913872818216   -0.64673104033315   -0.71990239938096
H           2.05589721786124    0.72109763645509   -0.01382805361100
O          -1.35248056032420    1.91268866990773    0.28786352447224
H          -1.74722869374129    1.10794677074614    0.69212778910209
H          -0.47812978599947    1.99637444325355    0.70569907301647
O           1.41997314145684    1.34410099262891   -2.93535536624857
H           1.94482270448968    0.91817182097429   -2.20944965329027
H           1.64381609890761    2.27558172208431   -2.91669979935349
O           0.28191684524517   -1.70100471280448   -0.48789410794588
H          -0.21726229048256   -2.52089663997187   -0.47644234002791
H           0.27351136587212   -1.41107564401945    0.45904971360351
N          -0.80630818853204    0.41353074521236   -1.78992927457012
H          -0.46405831753597   -0.45181054236685   -1.30162762477279
H          -1.61968391342693    0.19501396351281   -2.35404356564470
H          -1.07026031930045    1.11176301015946   -1.01753828690130
H          -0.02245061138289    0.80598079042276   -2.36887704126196
