    26
        -50.47018183  Gyration_radius:  2.47488863612 Dipole_moment: 3.849
 S          -0.96895386190082   -0.28881007724831   -1.52433236785147
O          -1.97761654666947    0.35414366236806   -0.68922144101831
O          -0.26193779460396    0.61552373337719   -2.38788171128571
O          -0.02973899847499   -1.05876931538624   -0.68458795173429
O          -1.70672374373366   -1.34685365725539   -2.41202479617883
H          -2.18783411313221   -1.87310469398778   -1.74966463544927
H          -0.21879572130290   -0.98805582897497    0.93634453375461
O          -0.25135929264123   -0.85560141120871    1.91517072764594
H          -0.90428912867591   -1.47912330877488    2.23676213303999
O           2.28128165925804    0.01653797120263    2.26480337846730
H           1.40936553333089   -0.42509446804139    2.29669863794360
H           2.14239704169875    0.90158028896660    2.60970375190451
O          -0.42682820288324    1.79573759894569    0.94240293290100
H          -1.11129412302129    1.47291179899524    0.32830964994989
H          -0.32556501007920    1.06533856391371    1.56670872451078
O           1.29188206278105    2.34318052921397   -1.07052431078040
H           0.71479994583266    2.42218397759988   -0.28442589431240
H           0.71805818693349    1.92601774640511   -1.74461418791602
O          -3.00003414665732   -1.96386244700144   -0.13096986692966
H          -2.71141591792554   -1.02466015760438   -0.14046555278090
H          -3.95844303127654   -1.95058517553387   -0.17783031041189
N           2.33305896081494    0.05694537401868   -0.42476704034607
H           3.12055575575946   -0.30634303131649   -0.94867886499472
H           2.07799909603099    1.06507864928917   -0.71498402432321
H           1.45408557445436   -0.49689489342739   -0.62169728309131
H           2.49734580591111    0.02257857165743    0.60976578944944
