    26
        -50.44330392  Gyration_radius:  2.54237272384 Dipole_moment: 6.438
 S          -0.33571011846222   -0.86765299085128    2.64425202179699
O          -1.63454828303375   -0.98266681885069    2.04415619271111
O          -0.05079340342703   -1.63193805327185    3.79915235840794
O           0.72865392949995   -1.21166771774594    1.52117583294709
O          -0.00445062210256    0.61473350911338    2.90887434715954
H          -0.22655139648770    1.11929779037017    2.05739696089555
H           0.30171585897499   -1.55269361706698    0.67145146907102
O          -0.09725379496560   -1.96495622933334   -0.78473515905896
H           0.25356036857731   -2.83173742882723   -0.99287623367836
O          -1.14937956968257    1.72492815722058   -2.31253252848823
H          -1.78917801739916    1.14566595233358   -1.87669855586096
H          -1.07457832829603    2.50103550531025   -1.75167481406727
O           2.23116420874840    0.79614065038091    0.39987811338408
H           1.89724981401363    0.00764664332491    0.86246373466928
H           2.72550657186680    1.30207230928958    1.04760720088186
O          -2.12207871572513   -0.12657617457954   -0.41192389778018
H          -2.27089271088033   -0.40836713243696    0.51059642180111
H          -1.64105395879044   -0.87223424651130   -0.79726304798878
O          -0.37629686031797    1.65832078076505    0.61435099335623
H          -1.01196179382658    1.05294105880610    0.16853899718070
H           0.51137488735778    1.46067000195180    0.26732184918152
N           1.07856758827491   -0.13395302471509   -2.18496442718476
H           1.52841484235012   -0.38197159534143   -3.05609297597067
H           0.40016091390406   -1.27993966536181   -1.37611154452594
H           1.76910162379307    0.30052914624984   -1.58213092482198
H           0.35925697565667    0.56237317077604   -2.39021238535901
