    26
        -50.45534537  Gyration_radius:  2.47349866644 Dipole_moment: 8.027
 S          -0.86842505109865    1.14547823823796    1.72737412341708
O          -1.62684258301282    0.94336597663067    0.47310865615233
O          -1.67583401813411    1.26479979334777    2.88995951109025
O           0.15713223256948    0.08672568161993    1.81266343651813
O          -0.08100070150103    2.48876784285364    1.51145484621506
H           0.36393917800765    2.37449806380470    0.65086523760204
H          -0.33885478297145   -1.41373703689650    1.70071859713654
O          -0.51751232906450   -2.38124905011882    1.54535503810266
H          -0.39589414859093   -2.79848269940707    2.39928750005631
O           0.94481171312474   -2.51174689470762   -0.62079358527917
H           1.14065623828034   -3.40822065135639   -0.89467473163662
H           0.48030114549227   -2.57119263633645    0.25581331990308
O          -0.95974621756937    1.63460197165121   -2.28593509238794
H          -1.56049633566578    1.84268489090452   -1.55877450823555
H          -0.08998272470275    1.92471481225236   -1.96265510788474
O           2.16895422569176   -0.08258496891778    0.15711085480361
H           1.51649803414450   -0.02154041661078    0.89544673790259
H           1.99118527209274   -0.93596416455434   -0.25852769861520
O           1.28089720108368    2.15011412998663   -0.80810872672198
H           1.98544513336840    2.79991146345487   -0.80089019503211
H           1.69571714946874    1.28342374428066   -0.53210439896094
N          -1.11339249703079   -0.80352499189202   -1.27901847861190
H          -0.96406955248475   -0.05030504377250   -1.99175879458133
H          -1.31408306438283   -0.18858100491224   -0.38721991663739
H          -1.93306288854185   -1.36101075739154   -1.49200657803001
H          -0.28634062856892   -1.41094628215561   -1.14669005628830
