    26
        -50.46327361  Gyration_radius:  2.52472261212 Dipole_moment: 1.036
 S           0.85695268180495   -1.53703441933291    0.91447344927935
O           1.27063031876086   -0.97069802040756    2.17432708316231
O          -0.58230762121044   -1.48291760546929    0.68810550450116
O           1.58283438774799   -1.01810969996792   -0.23505367331723
O           1.22362715354907   -3.08336912570696    1.00490813401835
H           1.37293258092004   -3.17932086244037    1.93966846579035
H           2.30930373569980    0.47590753101044    0.04308890312678
O           2.53453755130557    1.42426808465951    0.16477506374136
H           3.24224860508821    1.44513252262592    0.81053852851685
O           0.13020828780311    1.35302898164988    1.47222796737254
H           0.38959191810316    0.52713638731854    1.91096312722772
H           0.93213252368239    1.64039312370022    1.00212051059182
O          -2.14610748884136    2.48601810982202    0.62978105582898
H          -1.39302038306892    2.11679041913212    1.13656550721264
H          -1.95464121222668    3.41638177867196    0.50384549988222
O           0.82333014807966    0.72814615684620   -2.13656276329457
H           1.36641807503062    1.44748431536958   -1.79852049785589
H           1.14279414940548   -0.05958752367034   -1.65521530162854
O          -2.09189051671057   -2.27218349513212   -1.46403596736103
H          -1.84995775053340   -3.11592103323401   -1.84674584288748
H          -1.58199576212031   -2.18901032306348   -0.63975368151094
N          -1.53840986829449    0.38965045939226   -0.94010557132346
H          -2.19353485486480   -0.18249592280499   -1.47476028962190
H          -0.70582000325164    0.64649958161335   -1.52879389267238
H          -1.97092433230081    1.22706932188557   -0.49958137008275
H          -1.16893233355201   -0.23325875247309   -0.17625995869448
