    26
        -50.45918069  Gyration_radius:  2.59100186561 Dipole_moment: 3.361
 S           0.78562791943843   -0.78399373155062    1.74043442250004
O          -0.50583839263698   -0.17202377422932    1.98582131448769
O           1.27747306272928   -1.68381383306651    2.73045046885931
O           0.52010824188426   -1.70193673373423    0.41873187923344
O           1.75224817154788    0.21612297528330    1.28035379581032
H           0.89941202072848    1.65761189465734    1.15507987760241
H           1.11459110150019   -2.43459090529010    0.54350389461629
O           0.16713759902130    2.28592739438904    0.96707811292252
H          -0.46038716851793    2.13113850169268    1.67922486017485
O           3.01633678227631   -0.28136484119886   -0.95533877442744
H           2.55292244282040   -0.11524613545117   -0.10099169515903
H           3.92951213443169   -0.02999196977444   -0.80892747424037
O          -2.75443471727644   -1.27963092368130    1.22268276551440
H          -1.88346374899962   -0.92406964612804    1.51780260874975
H          -3.34586416426811   -1.15930639297938    1.96733413431108
O           1.40208904367629    0.87612240456640   -2.75733743589288
H           1.74320566429151    1.76892917604479   -2.83347336130263
H           2.04828072735910    0.37920003054001   -2.20664420955249
O          -3.14403157376097   -0.06884178330125   -1.10999323249896
H          -3.10696620971999   -0.50847253906533   -0.22634164838909
H          -3.43930528313428   -0.73954221378934   -1.72746464170265
N          -0.52371040565341    0.51582653005182   -0.91097862726032
H          -1.54020727038769    0.40493462164933   -1.13171330393402
H           0.06919416585430    0.67819067424465   -1.75714584077114
H          -0.37509321233174    1.31052282911194   -0.23212112949609
H          -0.19883693089909   -0.34170158902716   -0.45002675015259
