    26
        -50.46544236  Gyration_radius:  2.54239873857 Dipole_moment: 6.082
 S          -0.88441870513475   -1.06150783669797    1.76313854256577
O          -0.19223668701166   -1.57810887396742    0.58804053476532
O          -2.19146172981746   -1.62229741949839    1.95838177220095
O          -0.01190964042590   -1.50168105012724    3.01918545800409
O          -0.84920328930076    0.40089585592871    1.77741630444910
H           0.30842116593911    1.23035503864857    1.14454902015371
H          -0.44324298566811   -2.30757996926684    3.28306856437007
O           1.00054863313835    1.79551111329827    0.69578504314273
H           1.02764571234574    2.61181426470674    1.19689882341929
O           2.28832719063128   -0.69683016754286    0.23454033551369
H           1.43420814750362   -1.15566202747108    0.37791246273549
H           2.14157673443256    0.20013722525134    0.56078238537932
O          -3.13744533016972    0.38584707450160    0.39528363471529
H          -3.39149905044401   -0.43650844632881    0.83515119734113
H          -2.39599509366838    0.69477792424044    0.94199122571206
O           2.52125225914281   -0.25492443383217   -2.34472833972800
H           2.49439005266913   -0.57501921840069   -1.40325132171713
H           3.42939322663742   -0.00394129318388   -2.51617548504190
O          -1.51007202489812   -0.58822780335776   -1.47045635992893
H          -2.25425313096984   -0.19490206341589   -0.95862773553521
H          -1.03176596569812   -1.13917081053112   -0.81406914604033
N           0.32983031976057    1.18600219632558   -1.86761221299293
H           1.17656666178560    0.67106722048174   -2.21591270368788
H           0.06039343578095    1.92837189161793   -2.50290962043900
H          -0.47540651613848    0.45648837779903   -1.75825326093539
H           0.55635661958707    1.55509324081864   -0.92012911842001
