    26
        -50.46040348  Gyration_radius:  2.68223945414 Dipole_moment: 2.826
 S          -0.77340521583683   -2.05791963112937    1.78205389727289
O          -1.24283855506171   -2.47218023745265    0.46319867492908
O          -1.43778582464903   -2.68188150565657    2.87848290191227
O           0.76536077818634   -2.52712583956469    1.86226652796386
O          -0.68438625460496   -0.59563599752532    1.84611820026853
H          -1.47124515310370    0.55524038392694    1.04142797855307
H           0.64765501892505   -3.38599671309608    2.25189191295712
O          -1.88160959005019    1.22147653318969    0.43312750237467
H          -2.66570557682463    1.54491405096165    0.87815247573914
O           1.37592752463151   -0.22786766279374   -1.82341470612618
H           1.63527113336446   -0.17820639784055   -0.88084122499177
H           1.38010289147689    0.69981112647862   -2.14800708993412
O           1.66781802945520   -0.01289917544509    0.86790315379689
H           0.79355707798970   -0.24523645840207    1.26188347638068
H           2.28186729050865   -0.64063761758523    1.25317139658944
O           1.13747159437347    2.38468648704002   -2.33380581767763
H           0.90317041393414    2.56548352991942   -1.39097559270197
H           1.86497763919242    2.96986603854886   -2.54638942920164
O           0.59047928628465    2.52701498429395    0.26331211223944
H          -0.33116411985300    2.23643345704049    0.34883647186621
H           1.12136150696158    1.79856562919978    0.61533122265084
N          -1.15109303462056   -0.68989917968662   -1.40622571000895
H          -0.11279531074041   -0.53180811897336   -1.66309286078728
H          -1.52967753730663    0.16259166962801   -0.96503882991905
H          -1.69270520043773   -0.95095260061885   -2.22253590106684
H          -1.19060882219978   -1.46783675446585   -0.66683074303739
