    26
        -50.46018305  Gyration_radius:  2.46090722675 Dipole_moment: 4.616
 S          -0.11512259957971   -2.00039675290879    0.05889403336593
O           0.67748526072468   -1.79443808852683   -1.15855594347273
O          -0.70848959165670   -3.28548698633897    0.19596863174072
O           0.90206471687124   -1.77659160307925    1.25170561796251
O          -1.09267327571196   -0.89746529901156    0.19323300674031
H          -1.10503207284441    0.47425662992744    0.96757746175203
H           1.47140730029598   -1.07308878540471    0.89653458545931
O          -1.09625003043987    1.37089027334434    1.40107175874641
H          -2.01459995362798    1.60563719451635    1.53966770033810
O           2.36988935675381    0.47416563018020    0.80334450871521
H           1.96306970297826    0.65398814614793    1.69283552557153
H           3.31321373685289    0.37966607009884    0.94199107576622
O           0.95759821442614    0.59309978550880    3.01420486683794
H           0.16748281207404    1.00366653503452    2.61575122196976
H           0.77575807205912   -0.35263141908297    3.03912572189223
O           0.63112179305928    2.10714525402096   -0.58562639029646
H           1.39554432576201    1.63948751482287   -0.20993519084634
H          -0.04624845727900    2.06216873612096    0.11423256118237
O          -2.64356590162729   -0.52562980647112   -1.87020788395281
H          -2.19749373167043   -0.70399289615122   -1.00745489967824
H          -2.96366353360242   -1.37616382076747   -2.17484126919975
N          -0.12858938182634    0.30363589774811   -2.37454118741941
H           0.27236434600920   -0.59232803110947   -1.91123466454425
H           0.24455033622443    0.43369773820415   -3.30805080982611
H          -1.16079982015341    0.16486919912191   -2.38689183744594
H           0.13097835592221    1.11183888404653   -1.73879821135236
