    26
        -50.46288378  Gyration_radius:  2.57630591923 Dipole_moment: 5.248
 S           0.61721479625174   -0.57933083875620    1.71371986362721
O           0.87747885822230   -0.82942213508107    3.10271634389077
O           1.78083513594943   -0.33365376008546    0.88372942638346
O          -0.04103660231028   -1.90365892963213    1.09310320101200
O          -0.41002332001015    0.45378680716313    1.50113545849720
H           0.31707225654338    1.66334194454581    0.55167786686666
H          -0.72967230661989   -2.08574912316064    1.76210029519582
O           0.93367706418967    2.00587639831532   -0.13326603411086
H           1.75654421572144    1.54832245728063    0.08753467956563
O           1.51391305718969   -1.75809213996996   -1.29846934037437
H           1.77310279558543   -1.26218980551970   -0.48559633363333
H           1.04943721293687   -2.52880210874934   -0.96315999633107
O          -1.63292514244143   -1.58209914383299    3.16749673457458
H          -0.74225168739944   -1.33471128992524    3.48948375649939
H          -2.09674981416327   -0.74869415986572    3.04950286593104
O           0.30956032654617    2.87063423206568   -2.83198075674879
H           0.34220462388620    3.75906272901313   -3.18808233393702
H           0.56592331153927    2.93600333235331   -1.90262408249929
O          -2.10052894742353   -0.36409843569098   -0.33297334540844
H          -2.21243640955422   -1.29618470834424   -0.13454970710274
H          -1.56002719151194    0.00196634377660    0.40867177582690
N          -0.07075441947109    0.26382328518707   -1.94209972353709
H           0.55824674110849   -0.58231627882263   -1.90874460210167
H          -0.99951604438615    0.01492285017277   -1.52249025284012
H           0.35399112816285    0.98580261951483   -1.30230953548624
H          -0.15327964861716    0.68545986801233   -2.86452620382250
