    26
        -50.47106203  Gyration_radius:  2.41682322827 Dipole_moment: 5.150
 S          -0.42721819865926   -0.39938251787322   -1.49443740316472
O          -1.50484845569960    0.11909881616627   -0.66637536646594
O           0.17541049701735    0.62424338274603   -2.32942118863978
O           0.59511988244928   -1.04976523286390   -0.64954791925011
O          -0.99426885312811   -1.49190361090668   -2.43388984270004
H          -1.34201523667674   -2.19717772164021   -1.83517295676212
H           1.72567599778742   -0.18177123166091    0.07157124679278
O           2.36379903717613    0.40467180202879    0.56016478949724
H           3.20589456100116   -0.05217008066682    0.54731715105549
O          -1.00608412898895    2.23755671159199    0.85494622371102
H          -0.62262896478000    1.76118095954652    1.62802439354657
H          -1.39893379028177    1.53213108387614    0.29719135955979
O          -1.00821865996429   -1.58072578575399    1.32992391095743
H          -0.27332623417533   -1.46720526564930    0.68454848042914
H          -1.66857172006133   -0.95353358216662    1.00077433498266
O           0.30634367146154    0.60233633986621    2.51878312596220
H          -0.15464631762525   -0.24250525386231    2.38750751490921
H           1.14223316198968    0.52884404535649    2.03692972800267
O          -1.66923188052137   -3.31214999386888   -0.65194992514321
H          -1.00282805525528   -4.00225853770648   -0.67439333403721
H          -1.55842394809931   -2.84556099082280    0.20359377535104
N           1.04831712414540    2.42802387227046   -0.68492269742238
H           0.19341584326281    2.51801494237712   -0.01227460821632
H           1.79037727828128    1.91322358473063   -0.18252146018137
H           0.71446634378425    1.78468154586951   -1.46881241559331
H           1.37019105556345    3.32210269901297   -1.03755690718085
