    26
        -50.46670647  Gyration_radius:  2.50023345059 Dipole_moment: 3.077
 S           0.25879794293664    1.43184696158088    1.52456365145643
O          -0.97465766632851    1.25315455453625    0.77142502592234
O           0.34233961092560    0.53503311550324    2.65734722307403
O           1.42901370127347    1.38294270528949    0.66129995956448
O           0.22129274157961    2.89899588360629    2.12121057607938
H          -0.35001019013539    2.77319338328047    2.87124465798277
H           1.40368104308793    0.79240377593782   -0.81467582514596
O           1.41386312024932    0.32444020339696   -1.69370321608807
H           2.18045312372625    0.65781554891779   -2.16210481293498
O           2.24354182866609   -0.98559121051855    1.75753400535765
H           1.52427342311270   -0.56475299979391    2.28527517962333
H           2.66696863121285   -0.22340531802831    1.34565472044077
O          -1.60738425486225   -1.30763252056322    0.46407327328511
H          -1.46413203598008   -0.37357842853334    0.72684861954572
H          -2.10175886437491   -1.26297901981070   -0.38904944082901
O          -1.20264439683769    1.30266399570686   -1.90793352058989
H          -1.20503963132722    1.43572804025743   -0.94014754556041
H          -0.30187599346119    1.01281673986735   -2.11029590230476
O          -2.66285196224735   -0.90622056047279   -1.94985858926847
H          -2.15081872862970   -0.06430455202086   -2.05484858844412
H          -3.58701596294723   -0.66020623454102   -2.00471907282884
N           0.79647484440793   -1.91680755130548   -0.24879122323445
H           0.92974886434707   -2.87371953977007   -0.55553466283336
H           1.02110965028791   -1.24164080441953   -1.00040170372188
H          -0.23852327650327   -1.74169684397676    0.06176724608943
H           1.41515444775218   -1.67849931399663    0.58381994544268
