    26
        -50.47679053  Gyration_radius:  2.36813236482 Dipole_moment: 3.210
 S           0.07927134691697   -1.48609694808986   -0.42651669383979
O           0.87077950819623   -0.31028715324065   -0.82344001290471
O          -1.25699847031489   -1.06143736523093   -0.00752498464346
O          -0.07170144599229   -2.39194006825163   -1.66978989905934
O           0.74951417403900   -2.24396792090359    0.60940733504091
O          -2.33000351465935    0.73172073701186   -1.56860963393519
H          -3.27056558565589    0.57169482560069   -1.65739715251468
H          -1.99153106597203    0.04486995442438   -0.94159378102810
O           2.56580271375071    1.07935367790398    0.72876080852654
H           2.12441232563976    1.93062228230788    0.64772939515649
H           2.16467942230113    0.52111954195367    0.03316908009768
O          -1.06553354507417    0.56599833933274    2.10075395314452
H          -0.84288363842404    1.31685310166817    1.50942131022734
H          -1.34393992264767   -0.13154003633656    1.47382738787240
O          -0.26072584038520    1.98676969139773   -0.03454208600703
H           0.15943443874213    1.16720030001852   -0.36699540604299
H          -1.05794453268536    2.07778474961312   -0.56880401012116
O          -0.42612952994475   -0.32632140162556   -3.19690500506954
H          -0.27025972961602   -1.74887220561455   -2.40016449256839
H          -1.20887229586022    0.13542841424447   -2.83786979679617
H           0.32224085496714    0.01937966451632   -2.69165264728155
N           1.29155381411501   -0.49211998264152    2.45539556557344
H           1.94666844378325    0.16768241173957    1.96265363161728
H           1.64199982976004   -0.78596145453723    3.36013374180213
H           0.32977224155068   -0.02163292912804    2.51180078136627
H           1.15095999347160   -1.31630022612763    1.79875261138826
