    26
        -50.46514921  Gyration_radius:  2.44559604481 Dipole_moment: 4.134
 S           0.81928463084185   -1.46874270746700    1.04982725429209
O           0.31560394145699   -2.54346297366274    1.86342032298404
O           0.49696595604753   -1.56833086528286   -0.35410480759061
O           0.53983652943929   -0.12753405746629    1.56869787421910
O           2.42699664148140   -1.58233530050009    1.15245684429686
H           2.55425164745767   -2.47771122652121    1.45043812626061
H          -0.11554601109955    1.38663198145575    1.14695406115522
O          -0.32128095677526    2.25544525341773    0.74308908492286
H           0.53453222197417    2.68791490928338    0.66910280437096
O           2.44981198396413    1.14328748137672    0.22181097700270
H           1.80291075224093    0.65169082800456    0.76965656963038
H           3.28059679902158    0.68366501752726    0.35686559406881
O          -1.97729878524982   -1.29087838234638    1.39664582999373
H          -1.58224712603671   -0.50213984254681    1.78062186465943
H          -1.30806302420092   -1.98083123941371    1.54947385167655
O           1.28217177595197    0.23785070152134   -2.05621822571937
H           1.03578117751885   -0.58435214071394   -1.57090366533421
H           1.84083054621308    0.71523405188134   -1.41132949898253
O          -2.79376471621136   -0.62583952042098   -1.05655455584465
H          -2.40984726978867   -1.00663316780557   -0.23378698638450
H          -3.72716439672878   -0.50637510655521   -0.87319118905201
N          -1.04721413564173    1.31819684253667   -1.64995605237021
H          -1.74129204157643    0.54583673927137   -1.49407914212109
H          -1.38506313162081    1.97139677225475   -2.34756876324129
H          -0.86628366878782    1.79148825109311   -0.72690633083049
H          -0.10450932987697    0.87652772104833   -1.94446185204232
