    26
        -50.46450561  Gyration_radius:  2.58018018795 Dipole_moment: 4.984
 S           0.28525123196463   -1.17844265761837    1.33915098941902
O           0.67907218279721   -1.73875436507751    0.03469620293459
O           1.11309687095708   -0.04708026537413    1.69754254923872
O          -1.13905079476614   -0.86454049762998    1.33086821386265
O           0.53604727377194   -2.29568107665477    2.40345837547576
H          -0.10027905714367   -2.99220417015570    2.14849084557347
H          -1.29730194471841    0.92122249544373    1.20934804444145
O          -0.74257245705841    1.71989147375596    1.11699113813781
H           0.07776207759625    1.41775388832505    1.55176809118864
O          -0.63691572971016    3.91372500213582   -0.76088554464277
H          -0.81589184526718    3.42351340418131    0.05306171709143
H          -0.93645396950811    4.81105275703201   -0.61140243064986
O           2.45912771830721    0.09915172579580   -0.67128109288804
H           2.64832697586406    0.40192586694748    0.22438368210814
H           1.93723158456706   -0.71747943906939   -0.51373052926214
O          -0.68613594073067   -1.03907448927750   -2.09483117218906
H          -0.26162329832033   -1.36232556973954   -1.26335305363626
H          -0.29707620241377   -1.55198254307258   -2.80551328422692
O          -1.39801031055897   -3.49121343046591    1.03665209377732
H          -1.65596345430280   -2.55241611808687    1.08520011454928
H          -0.94097580726125   -3.58989285228913    0.19719279504768
N           0.23580190434598    1.35915636170889   -1.36970581497476
H           0.18453532152973    2.24783546133181   -1.86500469069431
H          -0.26624759926574    0.57863085294480   -1.84979560607588
H           1.22594454258834    1.02362961945264   -1.20018360406554
H          -0.20769927327060    1.50359857546795   -0.42311800955174
