    26
        -50.45755904  Gyration_radius:  2.49758741863 Dipole_moment: 8.539
 S          -1.74549555838397    1.03130630070184    1.24390836576906
O          -1.78566992032077    0.35056394611537   -0.08044505413056
O          -3.03084474315668    1.17554587354720    1.83240491937742
O          -0.86009046362905    0.05906973194534    2.14874071022502
O          -0.94415481340957    2.24224986299931    1.13598627852320
H           0.50968620812443    2.26043974898422    0.66172094107833
H          -1.22057896387481   -0.83298099799541    1.92556911188162
O           1.42528535237766    2.23627495324507    0.23356664201930
H           1.83582361898590    3.07376006637968    0.45192351576310
O           0.79652404115624   -1.29559960317760   -2.59844162942476
H           0.94248934279533   -1.69973872617492   -1.71270396054118
H           0.10837764229197   -1.81620309246562   -3.01654656972235
O           1.73100787931287   -0.24045768936714    1.37285884143678
H           0.90669189312547   -0.12055130123397    1.87681910212798
H           1.87233157589167    0.61296438840507    0.93076280331841
O          -1.60762935306934   -2.09816367478632    0.90006798001993
H          -1.94693291698090   -1.38241795485038    0.33476839262225
H          -0.74360294669271   -2.33651768722055    0.52537029751262
O           1.01503881283722   -2.26016906701331   -0.11648970265689
H           1.59050772702274   -2.99228421747082    0.11010170650937
H           1.32754131663784   -1.48782990847387    0.43553495707459
N          -0.02206961772891    1.11739282088704   -1.74640463793772
H           0.70013722147374    1.60309055073555   -1.18048325281720
H           0.35996547982093    0.23898426266617   -2.17358506666115
H          -0.81260595412333    0.82342781676016   -1.04246343212648
H          -0.40173287048940    1.73784361685656   -2.45254124923827
