    26
        -50.47103793  Gyration_radius:  2.51739499454 Dipole_moment: 3.744
 S          -0.00709700786911    0.08119173976950    1.18706764012624
O          -0.47812291821149   -1.22052766476617    0.41704737687561
O          -0.82147705896186    1.17144490405567    0.63482732759435
O          -0.21396185417284   -0.13527171782496    2.59240951395694
O           1.38629232728956    0.23055485579908    0.79007452698845
O           0.13849226719439   -1.20640008491707   -2.27993211520178
H          -0.31012638593917   -1.46245966210600   -1.45942127817876
H           1.08742178780643   -1.33999128641128   -2.07852204762389
O          -2.66089219001322    0.81596395441300    2.61606198919663
H          -2.47140822071912    1.40047439679216    1.87276639143297
H          -1.76878099459013    0.53257344078457    2.90357103357835
O           2.61253824630929    1.71989292603966   -1.06902131772591
H           2.31502976087267    1.37816659302900   -0.20314576547014
H           3.12775421976781    0.99996563479456   -1.44804850289333
O           2.53850625671453   -1.24617078222707   -1.05919696252958
H           2.11383721955577   -0.76294960221121   -0.31136091586482
H           2.88373705540326   -2.05782658827570   -0.68567527619842
O          -2.80372881663738   -1.54097290015642    1.46729246309305
H          -2.72756996893673   -2.16180382571692    2.19537884640340
H          -2.93001945280726   -0.64850101324330    1.88924188287038
H          -1.39364628999539   -1.39424556747143    0.78342127554103
N           0.06592516054389    1.38865290035603   -1.77852983970983
H           1.07688941596927    1.66105526951814   -1.65743602063157
H          -0.43058636188462    2.03289645515167   -2.38402575008912
H           0.03092975146537    0.39152541064909   -2.14174629265522
H          -0.35993594815244    1.37276222417140   -0.79309820287954
