    26
        -50.46445370  Gyration_radius:  2.56076370402 Dipole_moment: 5.607
 S          -0.11026390466977   -0.72440587416750   -0.48064891754752
O          -0.32077779252165   -0.52418335552447   -1.99657457530587
O          -0.01777148320920    0.62931369744626    0.12802869766601
O          -1.26397231864158   -1.44168849155035    0.02876551111065
O           1.12656372398530   -1.44800216109074   -0.24764775279546
O          -2.62518765674253    0.91004979037377   -0.41173304857366
H          -2.73417777497660   -0.04823482223417   -0.41734669858536
H          -1.71821511821324    1.02452128964313   -0.08322090659856
O           3.23888800402081   -0.63998220281382    1.06038671955701
H           3.88250631078339   -1.34998313612248    1.06937630550689
H           2.53419797971045   -0.91831283858845    0.42562714265959
O          -0.17003543604222   -2.37798124094174    2.20296167371358
H           0.46054714069635   -2.99153067887511    1.81697032023131
H          -0.73133958988448   -2.10003532233971    1.43726948607370
O          -2.19227177616452    2.27691064692031   -2.70289164490894
H          -2.47946128116659    1.69641649820026   -3.40981774434100
H          -2.48741429590545    1.85430575733410   -1.86771075749230
O           0.41380810800951    1.89624638713889   -2.28303561740255
H           0.47007729190477    1.95723512503920   -1.32066059453393
H           0.05635447155623    0.38294491975802   -2.24139343911416
H          -0.48434177722376    2.22870875409685   -2.52316219213578
N           1.03630721236603   -0.04045735426550    2.40535939932052
H           0.92983356691082    0.54833655153426    3.22419456622248
H           2.03667016309257   -0.19836934842322    2.14116537845690
H           0.56312522580329   -0.98795336938601    2.50851537881760
H           0.58635101650275    0.38613077885376    1.53722332001602
