    26
        -50.46886224  Gyration_radius:  2.50864606851 Dipole_moment: 1.114
 S           1.15611963483652   -1.86589815020772    0.33270000298072
O          -0.20453489063331   -2.35060855981862    0.10702607283088
O           1.90108642062861   -1.65609240612196   -0.87632836671542
O           1.13946744413632   -0.68743880097216    1.20268326115209
O           1.89271185401295   -3.00160814819094    1.15052578619417
H           1.30847188388570   -3.16093920078426    1.88543971364281
H           1.50262326397985    0.76659484843052    0.60788168365826
O           1.70271365995993    1.65211503050848    0.21128430345583
H           2.53000457249862    1.93372929734640    0.60474980099030
O          -0.63834589804599    3.03846486687903    0.37732081430953
H           0.22041905548882    2.57434523893635    0.39116683884407
H          -0.60262551965305    3.66067256835576   -0.35043019722327
O          -2.40651906628754    0.99428928325028    0.30314049630555
H          -1.87576593215876    1.81051843121030    0.40119224729237
H          -2.18652000380314    0.44368191704752    1.08691696948324
O           1.10705131497137    0.49531346600336   -2.20441406564282
H           1.55226467971748   -0.33069211638219   -1.92348841329549
H           1.36791944194765    1.13867591931045   -1.52518478495304
O          -1.38918644933895   -0.78111931316939    2.04499694983283
H          -1.52830788743037   -1.60315721600790    1.56185213120151
H          -0.44183899583581   -0.59208483706557    1.90631373319116
N          -1.23464719334767   -0.49720805280752   -1.47833143412312
H          -1.77249149573457    0.16101653162106   -0.80753410473526
H          -1.83658551076329   -0.81970244101947   -2.22834493991511
H          -0.37634646490930   -0.01023899432244   -1.86940752214146
H          -0.88713791811885   -1.31262915203786   -0.91172698663065
