    26
        -50.47027708  Gyration_radius:  2.39663533121 Dipole_moment: 1.906
 S           0.83146332577237    1.24485678369406    1.16068418843849
O           0.04846915855010    0.18121342317877    1.79643703616179
O           2.22867662265762    1.15763442326560    1.44129451154005
O           0.55711606171444    1.23781464744032   -0.29629365430441
O           0.27927596625478    2.60599675950231    1.70017849051221
H          -0.63062687182544    2.65636610179575    1.36791874170031
H           1.92156703361651    0.26460348661910   -0.71743388405321
O           2.58268686738432   -0.45333970031619   -0.76004473802347
H           3.25690655686383   -0.16418677985842   -0.13673500532508
O          -0.17698661138506   -0.27003900138735   -2.44823644675824
H           0.66692070379871   -0.49597085502426   -2.84474692479185
H           0.02859612727842    0.33589200163986   -1.71624294431476
O          -2.38489388632854   -0.39217043382720    0.77385893666220
H          -1.57869546403094   -0.21752661327313    1.29374776875714
H          -2.62921224192208    0.46718972026575    0.41159755565115
O          -1.29705066516752   -2.17171889328941   -0.89919517707907
H          -1.88131023122551   -1.62695458615196   -0.32280008713643
H          -1.03706595499840   -1.57336570259896   -1.62923271203030
O          -1.81376445959298    2.27753927661934   -0.00830634209740
H          -0.97629666545122    1.85822052955422   -0.30540360054259
H          -2.03202299092307    2.94937851952779   -0.65715381701581
N           0.82584060884453   -2.00442999974035    0.56824360977687
H           1.60687808200112   -1.62024561727078   -0.01301381006110
H           0.53555443636042   -1.21852002544644    1.21049457035299
H          -0.04330730231132   -2.20478955238000   -0.06276717168252
H           1.11128180406459   -2.82344789254270    1.09315092566093
