    26
        -50.47492898  Gyration_radius:  2.40416714493 Dipole_moment: 4.461
 S          -1.66095595148312    0.57233722392197   -0.20360931550841
O          -0.76495687112830    0.23591848877581   -1.33094349998994
O          -2.48378871752719   -0.55070064071739    0.15169810300145
O          -0.86499865362183    1.06694744144410    0.92161169518042
O          -2.56111460714307    1.73839279708189   -0.69481737430849
H          -1.92790873228718    2.48458926221396   -0.75880677464193
H          -0.49320722787776   -1.98205437763444    1.86792227987780
O          -1.04502394196005   -2.49921497364920    1.25771449633729
H          -1.74544957190888   -1.88231781997162    0.95428916360248
O           0.64901956480588   -0.54932802346303    2.25763124326879
H           0.75976213507400   -0.18684507296650    3.13773035498938
H           0.06512489220326    0.08863890495474    1.77079098657126
O           2.39893958337761   -0.72206099629877    0.14683722477551
H           2.26230325307198    0.13624297747699   -0.29788756608985
H           1.97463434435678   -0.63714846252136    1.01985536158811
O           1.54004543587346    1.43714199058629   -1.34627565897577
H           0.64628203666111    1.00980472588934   -1.34912947808798
H           1.84618571269678    1.42596491429089   -2.25469312621204
O          -0.43137661070989    3.29119377197011   -0.42286913635880
H          -0.43903258653787    2.70152065089413    0.35080008127304
H           0.37171784845305    3.04373434625470   -0.90065186830880
N           0.39118410751749   -2.07642786138517   -0.88132140975264
H          -0.15146974394493   -1.23686135612441   -1.21717726346435
H          -0.15929547570392   -2.44655167541601   -0.04106403450145
H           0.50416220598633   -2.77426798419240   -1.60718440968509
H           1.31921760176081   -1.68864826140733   -0.53045009458204
