    26
        -50.46079755  Gyration_radius:  2.4090267545 Dipole_moment: 7.339
 S           0.60962671943910   -0.42875789596471    1.95963783488360
O          -0.22192540912958   -1.05851374350234    2.95609073301669
O           2.03285849649366   -0.52702823988080    2.15345234279250
O           0.34455873915763   -1.22847718889793    0.58239956719390
O           0.18116338565986    0.93896595100137    1.64737734827685
H          -0.61031823119947    1.33171356398234    0.39781711880718
H          -0.61607682875146   -1.30930241950863    0.56364358674446
O          -1.05988913428833    1.63124429101888   -0.45524133576515
H          -1.48045076143361    2.46629518770996   -0.24692256901218
O           2.67935011014116    1.20176559186687    0.36967144735225
H           2.56035957393555    0.45426316644664    1.01556522743441
H           2.26006471198635    1.93929004999610    0.82241522473183
O          -2.29913951096933   -1.06350507989588    1.43139463448450
H          -1.61969425219752   -1.14284911356318    2.14696661739989
H          -2.90742859885724   -0.38875903517731    1.73862898637020
O           0.41224686165955   -1.64268859965366   -2.11462508642337
H           0.69627348026237   -2.00626072868759   -1.26678491805246
H          -0.55111745256410   -1.48069644309723   -2.00580453578156
O          -2.03948874901621   -0.81056538749835   -1.35198566006161
H          -1.82731295516777    0.11147751023370   -1.13399243814548
H          -2.39747507188569   -1.18199997987986   -0.53540848647881
N           1.18047014602548    0.84941315615758   -1.75791890704482
H           0.96269022924774   -0.17737928454515   -1.96808793836436
H           1.55903301366776    1.31458730880088   -2.57577215917980
H           0.29279498241116    1.28930960050149   -1.44227290211302
H           1.85882648541210    0.91845776205494   -0.93024375313511
