    26
        -50.46784541  Gyration_radius:  2.55055877718 Dipole_moment: 5.176
 S           1.02478570033268   -0.36972718676844   -0.36075670355915
O          -0.10868971281587   -0.23992536678354    0.58053866342778
O           0.76757468471979    0.37045396994866   -1.58664344395193
O           2.27008250612367   -0.00873052512424    0.26534744969235
O           1.03933430194071   -1.87636523482375   -0.77286000382565
H           0.97520255861734   -2.36879181263358    0.09469675562782
H           1.25845360132065    2.35758299183686    0.17357553825223
O           0.40804710788095    2.36400252898777    0.61866066312443
H           0.19761047440359    1.42292107445380    0.76467647860697
O           3.02956360608668   -1.49346199112544    2.32136788780999
H           2.88168086228534   -0.92960611963297    1.53132384575356
H           3.24825848131107   -0.89426663956345    3.03690026590884
O          -2.18293248807938   -1.32280786961709   -0.59765038266454
H          -1.46460712321487   -0.94775394712809   -0.03482190729236
H          -1.87297593605710   -2.19095491668619   -0.86308291151018
O           0.68504820103087   -2.61816767328887    1.66799020412027
H           1.56259196558357   -2.42686397709175    2.05937250621728
H           0.18981219553190   -1.78862807724978    1.72613800812643
O          -1.92952399263382    2.97069285328823   -0.50024745438796
H          -1.02175559194094    2.89409996934217   -0.11987967693774
H          -2.52558498435421    2.93041322215187    0.25012728287756
N          -1.71508956609937    0.83889948737396   -2.07852298422700
H          -1.98098349870379    0.94665074244291   -3.05074020718154
H          -0.65641567011041    0.67634631084374   -1.97631276079872
H          -1.92941724055204    1.70624490245693   -1.51639633204954
H          -2.15007043262682   -0.00225672561990   -1.63280077115281
