    26
        -50.43205850  Gyration_radius:  2.45185546319 Dipole_moment: 6.215
 S           0.51033720710828   -2.51268471787371    0.56149009739010
O           1.39492185187717   -2.20184525948623   -0.53963821036754
O           0.36540953201254   -3.87700891494362    0.91050437086617
O           0.95087361056372   -1.69984059209927    1.80389927576049
O          -0.86029647709955   -1.88403104036777    0.18860751128941
H          -1.21614837348345   -1.29396391948556    0.97151504691588
H           1.28565285254387   -0.80020165264595    1.44412277614451
O          -0.64434369842534    1.64645235931752    0.68220587040493
H          -0.82970041002899    2.43239914392289    1.19260777175694
O           1.59521916160926    0.53093661666507    0.86239298369060
H           2.19745924938016    1.07158321509871    1.37403292616028
H           0.69151072387837    1.03587888285185    0.82200729372006
O          -1.55728899441979   -0.30114686326114    1.98732867046942
H          -0.93112984431045   -0.48532177889439    2.69133498835873
H          -1.21361847196213    0.54850758995141    1.49116669055268
O           0.74002947065054    2.45745224500105   -1.39622233188128
H           0.19457705593819    2.24107262716687   -0.58931807842111
H           0.15055038616661    2.91750306153366   -1.99508197548098
O          -1.88899885421209    0.38727984896859   -1.25318191764147
H          -1.54800929060112    0.94919263906342   -0.50822532485432
H          -2.24862377593159   -0.39889924188510   -0.83403276952216
N           0.58935565942726   -0.16037948566715   -1.98926398843853
H           0.98977429155188   -0.92242526024242   -1.37365406697180
H           0.76490250759441   -0.38762606620135   -2.96221982022676
H          -0.45556274217063   -0.07697311996527   -1.79196663568638
H           0.97314737234207    0.78408967347739   -1.75041117398478
