    26
        -50.47073148  Gyration_radius:  2.48416139341 Dipole_moment: 1.248
 S           1.59709877888718   -0.31541465870771   -0.81403033410300
O           1.30697042238056    0.60175395513655    0.27395741146385
O           0.68051820372211   -1.44778995199834   -0.81589025098878
O           1.69742746714545    0.32392418269784   -2.10631586322112
O           3.03894181045838   -0.89848713729928   -0.48752351426128
H           3.35693837641432   -1.22086718453186   -1.32503619863953
H           0.27018664069333    1.06608406907923   -2.36737676863925
O          -0.62601524311241    1.46840404951763   -2.46889979373588
H          -0.65142932854715    1.83982408707470   -3.35271647501306
O          -1.12954149125208   -1.31484465141004    3.08071348562351
H          -0.24179135681576   -1.55875710400624    2.73030800379146
H          -1.63681682803087   -2.12740464758055    3.10604424879386
O          -1.84863240219287   -0.67400894753984   -1.25211948209881
H          -1.66052621745571    0.07951865787535   -1.83672340872790
H          -1.00941745112000   -1.17189747202955   -1.21553519538107
O           1.15838527003969   -1.80777866719120    1.77078803844674
H           0.93612146355832   -1.85236411788364    0.82113214761990
H           1.80049819384337   -1.09626853836330    1.83531327956912
O          -0.56981477890187    2.83424074961203   -0.01668573112818
H           0.32072310360926    2.52424323383399    0.18198503123057
H          -0.73138825837732    2.54417339404967   -0.92746705338559
N          -1.24059910399680    0.44421176263582    1.06266039859222
H          -0.21010210844963    0.44723949584181    0.86290302937215
H          -1.40792002329687   -0.10162650874444    1.93499968462669
H          -1.51291745026215    1.43159831553016    1.10598887242341
H          -1.68689767895587   -0.01770636555564    0.21952645777943
