    26
        -50.46983879  Gyration_radius:  2.51153880342 Dipole_moment: 2.822
 S          -0.64103442056502   -1.52343401809252    1.42655493270331
O           0.62441537969087   -2.06722158646701    0.94389616674235
O          -1.76275180723394   -1.94764171734408    0.61940719776908
O          -0.86498521856879   -2.12550167514506    2.87430825577228
O          -0.57617435156581   -0.08248536728315    1.61018598259147
H           1.11723354040158    0.29578691125291    1.73771190144550
H          -1.09699696744753   -3.03028954884372    2.69151625961828
O           2.08191276872574    0.23512850235742    1.61398832754236
H           2.24820579121980   -0.71165682981813    1.57218574126479
O           2.23255616075711    1.11619890892051   -0.91379242436221
H           2.33848565800203    0.93725823706777    0.04779448722232
H           1.62678595839279    1.88203083433503   -0.97296028024010
O          -1.81816028374991    1.63309184982323    0.09040361758724
H          -2.46473857317910    2.09048682699037    0.63020358456249
H          -1.35718879879787    1.00233399935976    0.69663406831011
O           0.24818342185990    2.94784211845441   -1.10691530561068
H          -0.49488204469897    2.52902174242586   -0.63118812145580
H          -0.08140804986007    3.18818409565527   -1.97378512199716
O          -1.74414649746566   -0.53349582313673   -1.61773857380347
H          -1.92788637188599    0.34217153759796   -1.24372563397870
H          -1.91899480013418   -1.15304940440685   -0.87691579011583
N           0.85337735948119   -1.01361223876895   -1.46639638259722
H           0.83840730029374   -1.52385202697556   -0.54590228195564
H           1.24773076242525   -1.60142240801046   -2.19267763770088
H          -0.15455412380399   -0.76954592121943   -1.68449439740410
H           1.44660823775972   -0.11632700881387   -1.32829858190079
