    26
        -50.46853864  Gyration_radius:  2.55775127546 Dipole_moment: 1.252
 S           0.37196461450242   -2.00980530351565    0.30389639842045
O           0.72915383960360   -1.16131927275701   -0.83258807270166
O          -0.98812463646802   -2.48829624074096    0.20758482926936
O           1.31419516478915   -3.27958162701353    0.22720480499251
O           0.67880169199394   -1.35922235701867    1.56424480544479
H           1.63700534129086    0.01777314628785    1.54506969225107
H           0.91117098680092   -3.77448381329594   -0.47817666693599
O           2.07207944715777    0.89968549965910    1.56678224952037
H           2.92571630068555    0.76263428150055    1.97977991715545
O           2.04772338037362    1.23845035167402   -1.16213979376322
H           1.74300441773018    0.32773486852646   -1.29360124420660
H           2.14277767468747    1.31525258137583   -0.19583409964970
O          -0.79622799107073    0.83528394118342    2.03989120237101
H          -0.44002446455249   -0.07372971021895    2.06395888878842
H          -0.02621371840957    1.39622811758960    2.18727918161843
O          -0.04039942805469    2.71437012747395   -1.89018073060792
H           0.11756478376295    3.62209926685822   -1.62958954460918
H           0.80920117114149    2.22924777378707   -1.73986673655172
O          -3.10426721437453   -1.22525179901393   -0.79329244580200
H          -3.82897769314593   -1.38288342773901   -0.18617194267085
H          -2.36706703798742   -1.79445643035411   -0.48189594341542
N          -1.20003885403033    0.65783338607079   -0.61008548608172
H          -1.00433531909970    1.51582231679066   -1.16670123466019
H          -1.16463183030051    0.86483939711034    0.41747075173672
H          -2.09851584450911    0.19164096313175   -0.83843179039564
H          -0.44153477250351   -0.03986603737341   -0.80460699950063
