    26
        -50.46864104  Gyration_radius:  2.40209803767 Dipole_moment: 6.562
 S          -0.07440342537224   -0.45532791149765    1.82566832228709
O          -1.47057391930359   -0.57236117444947    2.12794033354379
O           0.85782893870291   -0.85130853714672    2.85485000817628
O           0.17786513959076   -1.46451310570483    0.59473521630071
O           0.25855337844925    0.86670923771268    1.27061199233981
H          -0.75874956329681    1.70648181886318    0.40033246858434
H           1.14108862945659   -1.58924173584732    0.62321344503227
O          -1.29550972695961    2.21614323018483   -0.27004639915160
H          -1.27379946702531    3.12937644492136    0.01863780338743
O           2.76239025242463   -1.38209275942535    1.24087860542259
H           3.29218990188224   -2.11454409260585    1.56136918131454
H           2.19435573668687   -1.09892602544061    2.00739548909710
O          -2.91200578259205   -0.09580909706167   -0.05813213444989
H          -2.50381508610517   -0.35053069589097    0.79708098222061
H          -2.69008114564802    0.83720828216232   -0.16920626166645
O           2.15304594224520    0.72199633715104   -0.51794570677972
H           1.53570595596535    0.89461675157457    0.23217560615561
H           2.70777351612836   -0.00092469327240   -0.20308723399825
O          -1.33874177630185   -1.39388387030113   -1.69299706135633
H          -2.09604773397510   -0.98239310436827   -1.19344191133229
H          -0.81511283177208   -1.80467363127232   -0.99040988863691
N           0.03884314390658    0.76529736686439   -2.12131630440971
H          -0.50829385712251    1.47285711883789   -1.58528587851852
H           0.96577435236602    0.66822690508850   -1.62502851525852
H          -0.51087481872711   -0.16816773939321   -2.04044773456224
H           0.16259425640328    1.04578466033783   -3.08754442374530
