    26
        -50.45272321  Gyration_radius:  2.64455313176 Dipole_moment: 5.653
 S          -0.52534596564103    1.81779055277436   -1.77241753880144
O          -1.69570285437817    2.14365359130413   -0.99115202945049
O          -0.46770381784829    2.34380056616348   -3.09762953256112
O           0.73547345911032    2.51192740575354   -1.00593613582875
O          -0.21941124396853    0.37986137820264   -1.66665749398110
H          -1.45845551935111   -0.34159954929937   -0.85589512315458
H           0.92625132353114    3.16734191999323   -1.66749700736593
O          -2.12076010778810   -0.76855809094084   -0.26099885311714
H          -2.96307223925927   -0.38363323375920   -0.50923716642284
O          -0.54098985302974   -2.47118474528166    1.08365460797903
H          -0.92478957441985   -2.57369618167924    1.95621466409989
H          -1.21887212991264   -2.03466164961823    0.53169170170409
O           1.36141509488394    1.71194814497265    1.62736039723138
H           0.39413217979858    1.63464323500103    1.79959690431744
H           1.41431872134851    2.31769907101538    0.87794265227102
O          -1.25490011285346    1.29682997278213    1.46025810918638
H          -1.60387440133695    0.41567949412876    1.27647453981926
H          -1.44160762294553    1.78423566770561    0.62791604616750
O           2.01764964475082   -3.16067267202568   -0.16575741270134
H           2.12428829867919   -3.88677344248382   -0.78117324204074
H           1.13545242619748   -3.24630386022412    0.21728630698452
N           1.28931123973036   -0.53393003462129    0.26896580828375
H           0.77237848169620   -0.16743375681746   -0.58030566074660
H           2.10901675700463   -1.07075434305454   -0.01378009699941
H           1.50308865067075    0.30343371114666    0.88744389380854
H           0.65270915504112   -1.18964318119104    0.75363168106084
