    26
        -50.46294022  Gyration_radius:  2.65573941783 Dipole_moment: 5.942
 S          -0.53282426572070   -0.33774275260944    0.18684218511854
O          -0.62372070912459   -0.03800661024571    1.61598447202812
O          -1.29025631939407    0.84459884649930   -0.48504661993947
O           0.87125754232037   -0.21055904339823   -0.25587681113420
O          -1.12119925382463   -1.59048571821976   -0.20771176950542
O          -3.12011140831442   -1.78782112072820   -1.96784174058895
H          -3.94498930406558   -1.70973178959535   -1.48671209483925
H          -2.41479253551913   -1.83817182135708   -1.29095696787755
O           0.48490940190260   -1.40159830351616   -2.62795451861804
H           0.02198498231833   -2.19828085406220   -2.35387074426992
H           0.78468233521960   -0.98501640947300   -1.79917784272273
O           1.84320588322946   -0.83928168014176    2.32654538159863
H           0.88210357947548   -0.67317314066153    2.27529685965100
H           2.09327472868936   -1.04108308911573    1.41876215733331
O           2.73655991704896    1.58327928388251    2.90099069325166
H           2.55807605930859    0.61692830868585    2.76502175482964
H           2.63220958914547    1.74395816368555    3.84012202104070
O          -1.61174134760148    0.23434628091613   -2.91490499013586
H          -0.79099191595300   -0.29023664805238   -3.05358494399208
H          -2.31649078988340   -0.43673272743616   -2.81220724542346
H          -1.44187755907399    0.66269027820698   -1.49087845334753
N           0.86835416858357    1.99493062337695    1.08386263955087
H           0.58494613138226    2.88844912120106    0.69571699807093
H           1.64967362777135    2.05604104958226    1.79523134089608
H           0.06418366549221    1.45665672157995    1.50769427868128
H           1.13357378658469    1.29604300100442    0.33465397032680
