    26
        -50.47417489  Gyration_radius:  2.4212076901 Dipole_moment: 1.886
 S           1.88276962096673   -0.62143142871594    0.28854305898019
O           1.61605171003386   -0.57092784444672   -1.13616100417998
O           1.61223346827468    0.64849665751412    0.94248387271965
O           1.22444332252756   -1.74910072866877    0.93060233900153
O           3.43311994843588   -0.88303470728818    0.47699680116738
H           3.45701720097909   -1.83048617621685    0.55300846460670
H           0.13980630625596   -2.32384492250863   -0.18550597164988
O          -0.37127537578632   -2.44273835764413   -1.01673642761570
H           0.25011946595749   -2.14075632639011   -1.68986686431912
O           0.01550048906653    2.56870367939493    0.15596079237665
H           0.65529559440163    1.87532050390104    0.44705047906412
H           0.36249282123122    3.40120256142121    0.47949025859277
O          -0.24472714627236   -0.21637444445598    2.65691647869672
H          -0.10119178145892   -1.14954342674721    2.46772068769150
H           0.50188621043524    0.21919062821424    2.20649316942147
O          -0.10597491011346    1.15781482828525   -2.19915789344477
H          -0.07281395667462    1.88334331477627   -1.55407006348997
H           0.62777951135152    0.56019697100143   -1.93973516357710
O          -2.05738192121060    0.99361447343903    1.11975657678385
H          -1.53170269481032    0.51754520220091    1.80338655023210
H          -1.48817140262771    1.73291005483352    0.84638274707470
N          -1.98993548026820   -0.33706367118581   -1.13738817480935
H          -2.87988753110940   -0.46244966401767   -1.60578124176317
H          -1.33637603262927    0.29614580965041   -1.69501001390874
H          -2.11800092249997    0.13015426727108   -0.18369619709665
H          -1.48107652443411   -1.25688727364545   -1.03168323053996
