    26
        -50.46343181  Gyration_radius:  2.4169250701 Dipole_moment: 6.081
 S          -0.59189218703379    0.47018983084228    1.88110223665372
O          -0.77438421102828    1.25923677415587    0.63922442699611
O          -1.71001790277322    0.61698465929189    2.76628607625582
O          -0.54474049059351   -1.03682724348995    1.38772740926318
O           0.72544910938056    0.71479872853297    2.42942364189711
H           1.73551131524455    0.02364348161733    1.47504409042365
H          -1.50079191080725   -1.23854269932312    1.24938776764175
O           2.37944230299302   -0.32502237119172    0.79002752630673
H           3.09810670390347   -0.72066515956494    1.28560080177050
O           0.81107458331871   -1.77985245389653   -0.99862173099076
H           0.46163002959728   -2.52492989646154   -0.50675810714372
H           1.35942841731262   -1.29297068115301   -0.35728748980628
O          -3.11880672885507   -0.89046066621970    1.09774160862853
H          -2.95486838271479   -0.22653366430926    1.79488414028604
H          -3.23093689873906   -0.41980448638285    0.26453268316534
O           0.57019867931264    0.34600401165608   -2.89210201413802
H           0.93651041639402   -0.53253243572252   -2.73183370398183
H          -0.36665292109282    0.26494285787113   -2.59744347248738
O          -1.57689008041903   -0.20927291565985   -1.40525611131605
H          -1.03794983267347   -0.98929578220751   -1.20965429783387
H          -1.38883457251815    0.41019696909462   -0.66988467261026
N           1.36816963768997    1.64209522124107   -0.74864940671764
H           2.05981293569834    1.04094180897856   -0.27102928148711
H           0.47898700578269    1.58987487554060   -0.14188930846757
H           1.69347331603838    2.59816021731621   -0.83445764984963
H           1.11897166658118    1.20964101944438   -1.69611514246054
