    26
        -50.46796988  Gyration_radius:  2.46677486605 Dipole_moment: 6.819
 S           0.09338624639847   -1.44653375650314    1.51079873852163
O          -0.14203005767200   -1.82801103894289    0.11674503472912
O           1.44853634933095   -1.61055052486019    1.93869536369289
O          -0.43072391493827   -0.09736853439411    1.76027858787489
O          -0.80914493410083   -2.41485644200712    2.37783644798165
H          -1.69235036025201   -2.31889984357784    2.02483421131439
H           0.39471568327698    1.16281428555317    1.31246500390325
O           0.86968094680531    1.96450543346682    0.95562288863870
H           0.70365777966714    2.66725726889580    1.58566085419307
O           2.92724743690585    0.04777430191105    0.43554522480691
H           2.49677586682252    0.87379272491504    0.68988571075312
H           2.57214600624796   -0.62508347084555    1.04822048442008
O          -2.41782879951261    0.83457496574775   -1.77398258427986
H          -2.72002737580837    0.31946918163527   -2.52372516842644
H          -2.56924006548176    0.26409158470605   -0.97717762617653
O           1.50642412946139   -0.75303828412651   -1.64286148705379
H           0.91227908157053   -1.31635860010756   -1.10122845600183
H           2.23530619559573   -0.51980026113487   -1.01761458467019
O          -2.51152950535442   -0.80076151366498    0.30943493622275
H          -2.10786789122811   -0.24938126234272    0.99979013587700
H          -1.74616372567700   -1.34051732130010    0.01544611855812
N           0.19038917291815    1.46092948044703   -1.62246448099260
H          -0.83719534264950    1.26108914934124   -1.70986119152978
H           0.48659838365208    2.13141444515534   -2.32313649761402
H           0.39906121795787    1.81500456905406   -0.66618648846052
H           0.74789745606319    0.51844345297838   -1.72302116629505
