    26
        -50.44661524  Gyration_radius:  2.49825364846 Dipole_moment: 4.237
 S           0.11851681131891   -1.03819510321673    1.74381600458516
O          -0.58848194821624   -1.04591858998246    0.48148213234781
O          -0.59911005126393   -0.47504300392495    2.83357095948240
O           0.57995177551275   -2.46770775761250    2.06034680469992
O           1.47408254161857   -0.32190173322163    1.54550141609185
H           1.40333843243236    0.55802241453752    1.02552897510573
H           1.08994189271033   -2.73408682322757    1.24425072754410
O           1.21125263150629    1.83734202509742    0.25568681901553
H           1.73493427933805    2.52661291866055    0.66792865555123
O           1.71129616461740   -2.86340781958855   -0.25095538097186
H           1.15911334296801   -3.45910555486973   -0.76372929137759
H           1.70675258313786   -2.01254016260593   -0.73138315843563
O          -0.92163826582452    0.47455360157198   -3.14358433100055
H          -0.15856763258936    0.05881926728810   -2.70316622011853
H          -0.61003686865801    1.29876813270198   -3.51979476651703
O          -2.50783195218449    0.52253980487657   -0.84606476775341
H          -2.09502511170686   -0.23354644897053   -0.41037516630211
H          -2.11965956626728    0.54507744931765   -1.73726659347241
O           1.06890235372180   -0.44888772957908   -1.45509831129273
H           0.34831927114753   -0.65360736453359   -0.81930354896302
H           1.42378986732779    0.39610643745490   -1.15275758970976
N          -1.15764582485251    1.94334074221770    1.18199766216746
H          -1.77768962980563    1.59764019540644    0.43983082653533
H          -1.56685071391404    2.78582820011713    1.56588243443894
H          -1.14531568005353    1.23178389796963    1.90886937027957
H           0.21766131793413    1.97751301418438    0.57878635808207
