    26
        -50.46497692  Gyration_radius:  2.54408717197 Dipole_moment: 7.937
 S          -0.19394468950952   -0.93077722638539    1.38296275541540
O           0.40281001265282   -1.51628411615507    0.16407585507398
O           0.80973989104559   -0.29156928734821    2.19437095418683
O          -1.27043011533086   -0.01343065854669    0.99532240128700
O          -0.81762100362266   -2.08996932507344    2.18987765495191
H          -1.67656408101368   -2.26998730621304    1.72053020189874
H          -1.26855591306087    0.68221936769488   -0.41617870840825
O          -1.22297840581798    1.08746506447930   -1.32927314351439
H          -1.53417688188818    1.98757256633734   -1.22260531685228
O          -2.97577298169872   -2.06980222348083    0.76256708822760
H          -2.67761165133351   -2.25055922261521   -0.15252664584432
H          -2.84942322903363   -1.11606426388415    0.87517838869662
O           1.54681000507587    2.14014955301432    1.66104779185057
H           1.99022479657768    2.40658285184918    2.46882207328636
H           1.20769144535133    1.22843691595939    1.84985878135824
O          -1.60149343649720   -1.87224298170967   -1.56104646814679
H          -1.75569307543777   -0.95106917368379   -1.79439323789954
H          -0.82010252886415   -1.86986298962165   -0.97210928005900
O           2.95496848974397    1.96526105776564   -0.53947756839622
H           2.49718787716439    2.02874418459928    0.34157577392396
H           2.98344633181974    2.85806855833490   -0.88739827663779
N           1.27458650274952    0.17703404782961   -1.57179172054160
H           0.35836996779235    0.67072249322164   -1.68440240625049
H           2.00870659785850    0.84838669357707   -1.22251418544802
H           1.06800926985611   -0.56217466665634   -0.81989934742406
H           1.56181679543046   -0.27684992329042   -2.43257341473959
