    26
        -50.46510375  Gyration_radius:  2.48022078926 Dipole_moment: 5.223
 S           1.27284760732513   -0.28916944491538    1.23846694487179
O           0.15542367467122    0.53516834133891    1.72884697387531
O           1.35883145368644   -1.56077063508342    1.88341732640713
O           1.15243398353496   -0.41301558690897   -0.23134717069133
O           2.57896169276844    0.51321735763115    1.50270650985116
H           2.50153289204550    1.30335578394600    0.92086267784737
H           0.40522756849615   -1.92102592708497   -0.18739720730952
O          -0.20560447122288   -2.68623925866427   -0.12019791936599
H           0.16703494116336   -3.20823671909472    0.59556101308939
O          -1.18738193236685   -2.03210785702327   -2.63424884380738
H          -0.97581684126743   -2.46297621806917   -1.78854852379711
H          -0.46531737156420   -2.24860005116763   -3.22661256293357
O           2.14187635166868    2.71316457564061    0.08686540688234
H           2.40995014897370    3.46272314258483    0.62259413424685
H           1.16396328671814    2.73925968104020    0.02507149107810
O          -0.55645989030376    2.54539043444046    0.28395592674208
H          -0.32451246719015    1.76331943366392    0.85882333720989
H          -1.00131586363815    3.16393155491624    0.86570793712254
O          -1.98479350743353   -0.87653557710547    1.03698778257469
H          -1.29000606000803   -0.40079961002131    1.53691260849986
H          -1.58974552999397   -1.73386693506422    0.80690629965859
N          -1.16783972302557    0.24662213974832   -1.19394137932944
H          -1.34183227474722    1.23064768142702   -1.37799361731971
H          -0.15606662407870    0.11138191779820   -0.88691491762607
H          -1.72418004162867   -0.10004743268932   -0.35617355140852
H          -1.33721102260433   -0.39479077124514   -1.99031070639863
