    26
        -50.47006555  Gyration_radius:  2.43532090344 Dipole_moment: 3.764
 S           0.00094308413132    1.57748567068880   -1.52544141674077
O           0.43857053181328    0.98357722660627   -2.76398143537734
O          -1.38974132997840    1.32566109550966   -1.20791328216416
O           0.87646511204148    1.28042968536429   -0.39373756335630
O           0.14197252174576    3.15142548771005   -1.73125444412038
H          -0.06839881996569    3.23366919223055   -2.65528030072187
H           1.87520788043931    0.01642147297930   -0.41378016520586
O           2.42548271117803   -0.80316268066086   -0.31254491684941
H           3.32920948220171   -0.53759028437038   -0.48612919453212
O          -2.39388760035312    0.43565786191754    0.98163087907520
H          -3.31877637994669    0.68522319631901    0.97273876761046
H          -2.01227977396931    0.78710976004367    0.13060763481024
O           0.01507049494155    1.09359477774230    2.10175123199223
H          -0.93914070377073    0.98654895092158    1.94725328953620
H           0.37229069285291    1.35339114626915    1.22460799507943
O          -1.34675013747475   -2.03007323537926    0.47779915686244
H          -1.88072095575106   -1.23431243088731    0.66452632042250
H          -0.99582560198102   -1.89626243656969   -0.43024954660852
O           0.02664960526083   -1.43088123162801   -1.73517635119815
H           0.94341184316000   -1.57589126774047   -1.47272364067120
H           0.03274175706584   -0.58348632731195   -2.21547821106148
N           0.79503144429357   -1.38603625035115    1.79339088411239
H           1.06743380885004   -1.95037347407364    2.58921071789447
H           0.53781893416464   -0.38336956760537    2.07271413887016
H           1.55342688799433   -1.32233256854479    1.09004577997412
H          -0.08620548923940   -1.77642377875231    1.29741367220395
