    26
        -50.44955569  Gyration_radius:  2.43655314649 Dipole_moment: 5.169
 S          -1.76715530379696    0.12953685915197   -0.36067544942623
O          -2.03874793533184    0.91962313478376    0.80179339361326
O          -2.86389372680299   -0.31553467053268   -1.15180825298370
O          -0.80152338461877    0.90098799444651   -1.29292237559195
O          -0.97024644410553   -1.13299483590993    0.06507710816472
H          -0.34931757180927   -0.98630977780158    0.84504855418288
H          -0.06275610686782    1.35634393624581   -0.77522636640587
O           0.62400593541239   -0.86774095940434    2.05841854613651
H           0.30194140935773   -1.40954168893598    2.78056690046667
O          -1.47121751997194   -2.21003760425676   -2.46324097868801
H          -1.58499736998664   -2.95475529625661   -1.86991399487134
H          -2.05281321342217   -1.50848733503465   -2.11883772182615
O           2.32716396778278   -0.39313747144580   -0.13579321249242
H           1.93350123276906   -0.83895726357761    0.62396200472158
H           1.91009387182891   -0.77548682026021   -0.94021561298672
O           1.23864724213300    1.93986692909299   -0.14489285882032
H           1.69135220413815    2.46792770984263   -0.80553736602073
H           1.75227529750366    1.07223074246134   -0.08386207694807
O           0.98957727498213   -1.07399170097261   -2.36779143950933
H           0.18111487570461   -1.62593545120590   -2.38859084012007
H           0.70146821698523   -0.22330969427117   -2.70700544217433
N           0.06262548590065    1.60831212866265    2.56306524990210
H          -0.04896880094329    2.06784883993431    3.45709885741073
H          -0.84553924577478    1.56678476745967    2.09978649411382
H           0.66120952258683    2.17971593231411    1.97792479925480
H           0.48220008641364    0.10704161533188    2.33357206095051
