    26
        -50.45189001  Gyration_radius:  2.46263589446 Dipole_moment: 2.886
 S          -0.20804933615595   -0.07051760202034   -1.88551267731405
O          -1.54237913730124   -0.51379975862776   -1.56514513153876
O          -0.09488495049448    1.21317535442172   -2.49355554193174
O           0.63393524998211   -0.10673508959125   -0.58654612153067
O           0.51077850955971   -1.13359906498989   -2.72814513958574
H           0.34595667129605   -1.97015324620769   -2.19901394353428
H           0.24866289795911    0.51367676863811    0.13882735453823
O           0.02768568216663   -2.16683216228203    1.54367047427358
H          -0.19791561350641   -2.81883238443670    2.20944802474676
O          -0.16196964280575    1.48373890885840    1.21671276960598
H           0.12170353670461    2.30164822038382    0.72239646563381
O          -0.30320824362879   -2.92173906643739   -1.08352302117251
H           0.00721381516181   -2.72066947295237   -0.17741130992440
H          -1.16738271050917   -2.49704775867372   -1.16026681738266
O          -2.01976459495874   -0.58311734817746    1.08317587564157
H          -0.77568574406883   -1.58791955050255    1.43429829271072
H          -1.69373268290573    0.28449539867417    1.35713323512216
H          -2.04109225977629   -0.55321353026742    0.10842426247576
O           1.79386745765172   -0.09998490283516    2.13237070010593
H           0.56522645048566    1.20111304297391    1.80884807351196
H           1.23215997900150   -0.88649631470488    2.00374677464906
H           2.39073190762671   -0.09865736474898    1.38134795464581
N           0.54034887135291    3.31003420195901   -0.56742026937262
H           0.34025470125774    2.68033278031205   -1.34614580429023
H           1.50015720443554    3.61797533214995   -0.66642006644133
H          -0.05261800853773    4.12312458905296   -0.68129440366170
