    26
        -50.45755833  Gyration_radius:  2.40723916714 Dipole_moment: 7.012
 S          -1.42878794847388    0.01816019479665   -1.40681070315725
O          -2.08677936418496    1.27290929746667   -1.12990193194961
O          -1.93747035957336   -0.79644080328505   -2.45601392532041
O           0.08581925951383    0.40713268060250   -1.85253058260791
O          -1.20515485669103   -0.75456747856484   -0.16097304866025
H          -0.96112429248824   -0.20537299144970    1.28425604613618
H           0.36683238066640    1.16360499595412   -1.28403621566529
O          -0.71502916684199    0.12893052341036    2.19312155008709
H          -1.23127084215520   -0.38077898181034    2.81783313798816
O           1.04844487814511    2.26273155503782   -0.23752359492816
H           1.30144114931054    3.07536842190734   -0.67708786763005
O          -0.37016695406474   -3.19354837634900   -0.43918173033794
H          -0.79031114653762   -3.75887274919621    0.20979900540185
H          -0.87898441708615   -2.34488328825997   -0.44598040850207
O           1.85770569953864    0.15651667197372    1.34069000112080
H           1.78864812364549   -0.90072585448249    0.19012408321762
H           1.79857693513137    1.00075569359774    0.86227650658618
H           1.01520165633526    0.10232059483530    1.83377834877013
O          -1.18943036338764    2.56195520525196    0.95477377431177
H          -1.68305831365100    2.16505432103424    0.19533407671547
H          -1.15343605347787    1.86661212860457    1.62976689903613
H           0.20274376903978    2.47736410508351    0.28380809576162
N           1.61710591193600   -1.46350433148381   -0.70858146786309
H           1.00878719907645   -2.29496301290792   -0.51473503519218
H           2.48561156017495   -1.73665637807985   -1.15611610836102
H           1.05408553591585   -0.82910216360823   -1.32608892496095
