    26
        -50.47166899  Gyration_radius:  2.41865880786 Dipole_moment: 3.983
 S          -0.53453645715753   -0.75537818431380    0.07802867709147
O          -0.06323154990597   -1.25984916073382   -1.21233313131794
O           0.01216033055790   -1.78180077225948    1.11850428753449
O           0.09930908701869    0.52888190557102    0.40162293736079
O          -1.97221809217316   -0.68652626732388    0.17024055435252
O          -2.02308525227821    1.07039815256984    2.13596734062415
H          -1.22625426333910    1.54028268082384    1.87015936573100
H          -2.22312034944216    0.49011356914019    1.37233497393511
O           0.61489390461875    2.10793748020932   -1.71051007421254
H           0.43138792551531    1.80725255462118   -0.80033036914541
H          -0.18843422642961    1.84250606070780   -2.19716728684158
O          -1.57286985551595    0.64431117895143   -2.38634999018704
H          -1.12188006834918   -0.17098535197808   -2.11328889121621
H          -2.36335420062047    0.67762056446278   -1.84226857817039
O           2.57731878348304   -0.31244493247058    0.71095333539393
H           2.45920119941442   -1.18981631140409    1.08280708488628
H           1.68777921977588    0.10099478185921    0.75626506685258
O          -1.14536281785830   -1.10849957417120    3.32739398422804
H          -1.49136694269115   -0.21853233485364    3.05733792024971
H          -1.91770843800131   -1.66217826719916    3.46169596283016
H          -0.39398025676306   -1.57002551994918    2.01010546699590
N           2.11121793545887   -0.02243130351711   -1.89160946945238
H           1.27029175250797   -0.66013575182734   -1.75763509896864
H           2.62461604951223   -0.09153984316781   -0.98318448788156
H           2.67748620629577   -0.27272074144644   -2.69403690461319
H           1.67174038637308    0.95256538770767   -1.96470268606587
