    26
        -50.44312311  Gyration_radius:  2.51357251301 Dipole_moment: 5.528
 S          -0.98171412016307   -0.05038902661955    1.21998776973708
O          -1.11982446996679   -0.73353462271774   -0.04515661754184
O          -1.45515328406762   -0.71928521862151    2.37450089382874
O           0.54297692705506    0.27563345368836    1.39018148830863
O          -1.54568891065219    1.37043331920847    1.10667078009577
H          -1.33811796340961    1.65905685534711    0.16103116904745
H           1.11458485572828   -0.53536467838748    1.22721602272593
O           2.08942021816527   -1.69081814699287    0.76147867337838
H           1.89818501113769   -2.52059856515414    1.20202348211602
O           1.58017801206945    1.04939914326267   -1.93744010006597
H           2.02661520701622    1.56042686603004   -2.61465453438921
O          -0.99100120476136    1.71483919633772   -1.36316256828930
H          -1.46085049586916    0.92283620836625   -1.64388133104948
H          -0.04422822345352    1.54351051241147   -1.55372134963657
O           3.01977075887512    0.99816881494249    0.28995478457733
H           2.15637150885938    1.08323434034690   -1.13278554826867
H           2.35919059125226    1.25992262807213    0.94110303360416
H           3.18502799447813    0.06174799559203    0.45445322654687
O           0.92047934476798   -1.62284164225955   -1.54264317157986
H           0.05468187076438   -1.45021055709558   -1.12888171454754
H           1.19377987377642   -0.77094798306995   -1.91884623538027
H           1.74323810669659   -1.77857933616114   -0.17862401364184
N          -3.99102635867606   -0.43348041370482    0.84947133500649
H          -3.22773658844855   -0.79642305823217    0.29232726919713
H          -3.95719207773720   -0.93004486394649    1.73196454505843
H          -3.77196657347676    0.53330879923143    1.05743267107121
