    26
        -50.45825238  Gyration_radius:  2.58552988075 Dipole_moment: 3.159
 S          -1.08299705244331    1.17833984251242   -1.65207524163687
O          -0.64743281380333    0.34953045496470   -2.76970070493786
O          -1.62106163972271    0.37409463567997   -0.56588337082765
O          -0.07073992597450    2.12193083908606   -1.23245631941568
O          -2.30941964293586    2.04157247862994   -2.17647562834008
H          -1.91005681371845    2.68685285694491   -2.75257937138973
H           1.16595156928377    1.37911423307837   -0.52718935774221
O           1.93785236307609    0.92297922916063   -0.10533867148631
H           2.69623711380756    1.48351310101266   -0.27761013397364
O           0.64991898458997   -2.02327823830678    2.16504211492156
H           1.09963449847746   -2.40031416394747    2.92191955701364
O          -1.63875429318636    1.58680773063171    1.80767563399343
H          -2.41919171273703    1.22661664987504    2.23222281046295
H          -1.63509450309557    1.22719699139756    0.89760633490390
O           1.83383413298077   -1.81061167141395   -0.19261526696997
H           0.54181401703164   -1.90327424577300   -0.95512199255706
H           2.01822064387079   -0.85259928853046   -0.20228371948684
H           1.49021517135806   -1.99355857343054    0.71626605713940
O           0.80539935215786    0.58047613261303    2.42180094047110
H           1.28662760868482    0.80008751001141    1.60787235330852
H          -0.06484928533194    1.01496920464382    2.32348281130684
H           0.63579660711627   -1.03934529490212    2.32382194867226
N          -0.44927702953991   -1.81563832873808   -1.40177080931527
H          -0.82826858721507   -2.71077507808167   -1.68986974635529
H          -0.42073772420939   -1.10304935017467   -2.18607820761566
H          -1.06362103851767   -1.32163764694510   -0.73066200014408
