    26
        -50.45825219  Gyration_radius:  2.5858291644 Dipole_moment: 3.169
 S           1.14307555518223    0.11400603743316   -1.99346308464497
O           0.72500798516656   -1.18564177787601   -2.50533305458359
O           0.01032484826606    0.89234596305682   -1.51692552676658
O           2.22415315240834    0.01334202695682   -1.03834948631225
O           1.71451961793768    0.92795876679139   -3.23237943152037
H           2.54975060840070    0.50988532098461   -3.42037179305491
H           1.73066167501067   -0.65590561316434    0.33545525631303
O          -2.16258406927749    0.21570987563776    2.11959015807787
H          -2.54618211866741    0.25265924606192    2.99638019066602
O           1.43323349258884   -1.08202401380244    1.17910392470917
H           2.20798686968352   -1.51961021670399    1.53587076866086
O           0.64274305143020    2.83028996979414    0.20041760054727
H           0.49871289050191    2.12602202209809   -0.46341269420112
H          -0.00434068712264    3.51140588940420    0.00973346160354
O          -1.13771028901514   -2.01961005755869    1.14083186163206
H          -0.18659864447765   -1.81825173135144    1.22306122209038
H          -1.59565085670657   -1.27084209315921    1.59613034091650
H          -1.42947296210022   -1.64310538162228   -0.28471995836101
O           0.26597441417789    1.18050193435436    2.32170708207724
H           0.77736829256460    0.40966706909259    2.02747096009555
H           0.44639962439211    1.87071384497185    1.65327213413186
H          -1.27830242949812    0.66962818401291    2.19392326039365
N          -1.53318710730972   -1.21219438951403   -1.28118371471822
H          -1.38513170209506   -0.19010598062572   -1.20862973032991
H          -2.41740844517955   -1.44704991146621   -1.71815175062997
H          -0.69334277628121   -1.47979499380018   -1.87002801677876
