    26
        -50.45825241  Gyration_radius:  2.58563282281 Dipole_moment: 3.182
 S           1.28039211956760   -1.07482437822579    1.58048538950249
O           0.80329802907775   -0.31486021534319    2.72979823485763
O           0.17862812418747   -1.57223670422879    0.77168962418701
O           2.28545910556942   -0.36307890334303    0.82251706915714
O           1.99173440364522   -2.37295747251983    2.15762412664555
H           2.80715060117612   -2.04583153791505    2.52615049521397
H           1.65197651365610    0.89827680123462    0.05740109208132
O           1.26720982981653    1.68626139995410   -0.40406641286217
H           1.98044609712381    2.32369709467019   -0.46737428720171
O          -2.27492028426364    0.76921145325833   -1.85523813881307
H          -2.71182395399533    1.18321461107259   -2.60019925760741
O           0.82799418056722   -2.17846986478740   -1.74161598665974
H           0.23934848732655   -2.90604966985460   -1.94929862684875
H           0.68058326809243   -1.97215666384626   -0.79661140306144
O          -1.35842080303097    2.18865928894433    0.18184916264889
H          -0.40241647680477    2.16065600155322   -0.01112614127027
H          -1.78807802887311    1.77129212679145   -0.60485166828813
H          -1.52558190392748    1.06606355272960    1.16688806314412
O           0.19997718497051    0.32048246888581   -2.59147201573780
H           0.47314687795417   -0.60215962364564   -2.41815550542273
H          -1.36585543007736    0.52151748078054   -2.18070904632559
H           0.67114030551680    0.84876890869929   -1.92729042134655
N          -1.52948516435511    0.15189473208271    1.76174655952951
H          -0.67194267767051    0.13415330773440    2.38522764206453
H          -1.31408157323231   -0.64294788219144    1.13470515613604
H          -2.39587884202582    0.02142368751256    2.27192629627879
