    26
        -50.44862192  Gyration_radius:  2.41721497208 Dipole_moment: 4.701
 S           0.91334047969892    0.68026734133299    1.73854566728215
O           2.31986868902631    0.29218336045157    1.26884535406111
O           0.97523738895236    1.78250705645430    2.62687758266905
O           0.17858458220493    1.07216201922782    0.42409370229861
O           0.20724277631265   -0.48748165169576    2.21477631753083
H          -0.07153886533165   -1.73976571168922    1.20649482500175
H           0.69471966214087    1.69731576181981   -0.15611481831991
O          -0.14891596470546   -2.45819497813186    0.53235873363646
H          -0.18057639038609   -3.28259472969572    1.01990026094123
O           0.32995388124259    0.12200688521784   -2.47362534191237
H           0.19219880855569   -0.25790634873648   -3.34257356662869
O           1.26156294249167    2.44316984409347   -1.46333919670920
H           0.67002254033265    3.15349805590601   -1.72061807779674
H           1.03325738739723    1.67007685329302   -2.01746239676450
O           1.91912976164283   -1.23853784107727   -0.70907003009665
H           1.46842065585682   -0.70378905694914   -1.39322109603540
H           2.23887392092395   -0.34766437578923    0.47194243258707
H           1.23779552124975   -1.84616661325569   -0.36164983472588
O          -1.68912143709404   -0.76022451644616   -1.08898219609254
H          -2.01327710395117   -0.20357286287655   -0.34603169870762
H          -0.47995684731058   -0.12408660629472   -1.93253443915200
H          -1.28147792715622   -1.51941355624988   -0.64790898140405
N          -2.45308527044618    0.41465860307650    1.27861383775089
H          -3.25730037281828    0.10285881490954    1.80969372809705
H          -2.44879319357046    1.42656256760341    1.29164520655922
H          -1.61616562526985    0.11213167547662    1.76934403594347
