    26
        -50.46439132  Gyration_radius:  2.39571650084 Dipole_moment: 3.896
 S           0.11604932168274   -0.44692863701915    1.74503769645982
O           0.80676562368483    0.68879794130254    1.13622594572279
O          -0.52649126165415   -0.08398516205602    2.98556207278985
O          -0.87109483755320   -1.01110886633018    0.79852842375459
O           1.17222416865833   -1.55795998008610    1.99527264637022
H           1.52354211215279   -1.78791225769361    1.09613627566857
H          -2.11337011165442   -0.03714410356644    1.02503565751088
O           2.14323250351148   -1.97810960005758   -0.42797603049110
H           3.03091454070041   -2.32875732980798   -0.33525766540223
O          -0.23415614205686    0.95872257536985   -2.36133268976245
H          -0.49761572882425    1.07779563020698   -3.27433021413169
O          -0.88756726118052    2.32046855429679   -0.04518562329365
H          -0.13878934322349    1.90436097529868    0.43832332885772
H          -0.79235508335641    1.96637967636526   -0.94860664688878
O           2.23967346638247    0.54217877411205   -1.07210500504386
H           1.54470553697836    0.79692920437230   -1.69854344296486
H           1.85240231013374    0.74236289172286   -0.19478807773020
H           2.24822308029700   -1.03151960721303   -0.74218812891753
O          -0.38382663093348   -1.59078172288794   -1.72352073142546
H           0.48618550998496   -1.99929978234697   -1.65189893133861
H          -0.65638916860914   -1.45683983432057   -0.79042214303092
H          -0.34277534554874   -0.00966500725592   -2.16181582936845
N          -2.42768550431940    0.88185223903113    1.45497937425225
H          -1.96447401566417    1.62844794426951    0.82447614158837
H          -1.89786819646141    0.82612665392954    2.35267330842714
H          -3.42945953311130    0.98558881038149    1.57572029838705
