    26
        -50.46439122  Gyration_radius:  2.3957318658 Dipole_moment: 3.897
 S           0.83081679534570    1.41512545007601    0.75282069934416
O          -0.60957006320206    1.17294643650070    0.81834613493866
O           1.37553526106512    1.77295119368505    2.04067650315769
O           1.52427450667289    0.22553544475580    0.21176047122270
O           1.06666643212710    2.56417434258617   -0.26531690600718
H           0.71836245997693    2.22027258467127   -1.12849985258971
H           1.65830026042416   -0.67822335156174    1.51787498710160
O          -0.03043530099579    1.60552131952753   -2.47194582591971
H          -0.29003751439338    2.34756972164156   -3.02102789735112
O          -1.33163010746740   -2.05125589300258   -0.75479281940918
H          -1.55958669647835   -2.89935282447430   -1.13675240565848
O          -1.14004498672772   -1.18383738451711    1.86375033854370
H          -1.24434571638946   -1.67124256360227    1.02580219541352
H          -1.13754676902232   -0.24303110996521    1.57660865579956
O          -2.11406400969117    0.60865901593027   -1.27191362120246
H          -0.87909821592327    1.22597774538499   -2.09580483121974
H          -2.08125380789348   -0.35795697767621   -1.20230425382412
H          -1.72939927032877    0.92000881859536   -0.42644337762986
O           0.80376571941225   -1.08707423462003   -1.95456897890360
H          -0.50301715870067   -1.74966863018239   -1.21503880056317
H           0.58944313483511   -0.35745355493905   -2.54673378980135
H           1.18466037533131   -0.64375853407055   -1.16636910418848
N           1.33354899551395   -0.80769832081985    2.52105255322321
H           1.91146774459089   -1.41672466815988    3.09023799512343
H           0.30443004051085   -1.12286143149429    2.41588392167282
H           1.34875791141909    0.19139740573294    2.82269801871203
