    26
        -50.45002654  Gyration_radius:  2.51437697866 Dipole_moment: 6.066
 S          -1.09046236419295   -0.21563401873540    2.32161767319873
O          -1.69320152203538   -0.49522965768951    0.91557964291223
O          -1.87874506011002   -0.80060034832975    3.34157125075909
O           0.30891564982777   -0.57108691723736    2.28753624638461
O          -1.20327458406177    1.32684058836197    2.39848738412676
H          -0.59751856298869    1.65940124615200    1.68329659078892
H           1.43710709696955   -1.32880066491137    1.41839559422593
O           0.37424973626706   -0.50076153218643   -2.57008909157628
H           0.84032689285221   -0.88831027380123   -3.31180381241270
O           2.01623713783644   -1.80493035940823    0.77669648694128
H           2.57739582981350   -2.38053668267105    1.29783782192474
O           0.22487743111818    2.12857055530879    0.38043556701839
H          -0.46127717244183    1.88839921565991   -0.33685176150369
H           0.32288059014508    3.08245753345901    0.36611883972143
O          -0.37251246456964   -2.10828951035789   -0.51941406461459
H          -1.17105896194033   -1.20061304173649    0.37956624917115
H          -0.21992675429416   -1.58832291557644   -1.33737483238424
H           0.50367576228751   -2.18945900414852   -0.09995948117442
O           2.10189854333079    0.45008670111530   -0.82912351452002
H           2.25874014294947   -0.32684616292029   -0.26864755643037
H           1.06907338476880   -0.08827956794575   -1.98836361732047
H           1.57613134283780    1.06280514473945   -0.28986451287579
N          -1.55744136940371    1.37070428412715   -1.36107962081846
H          -1.07451884690167    0.78247970487051   -2.03427134227702
H          -2.19324849866381    1.97713014658456   -1.86199194379841
H          -2.09832337940182    0.75882550728199   -0.75830418547188
