    26
        -50.45002653  Gyration_radius:  2.51427479885 Dipole_moment: 6.066
 S          -2.19970480698929    1.06263834960089    0.81000961250948
O          -1.46776693367594    1.22003885999092   -0.55305361480392
O          -3.54143036743964    1.50564072665336    0.72419559337009
O          -1.98178313664376   -0.28471000326624    1.28216828656307
O          -1.38850959030683    2.03297131839131    1.70343362624023
H          -0.47800684789067    1.63496866242094    1.74471015087785
H          -1.44362020405757   -1.74265254294789    0.84971002809303
O          -1.06990058027974   -2.56479316225314    0.45186050983565
H          -1.64236215648967   -3.28116289265760    0.72918184000300
O           1.76505927141101   -0.91226784142165   -1.74591471751823
H           2.23446854511032   -1.60498949947803   -2.21213478504506
O           1.02014731480552    1.06249083974340    1.59895393327418
H           1.61693032055397    1.51738852231559    2.19614066463927
H           1.22845404484844    1.39712572200111    0.65675989436993
O           1.49253503250577   -1.56829020614157    0.78686182829089
H           0.65748558190012   -2.06301274902123    0.76952100220087
H           1.76288552212502   -1.17412142935681   -0.78530425386676
H           1.29124996109551   -0.72586603410144    1.22556939992582
O          -0.94529478353572   -0.94789576293287   -1.74998826631038
H          -1.06101181145877   -1.65626311223262   -1.09037622147762
H          -1.32461950763261    0.32891494590705   -1.04584770758657
H           0.02337973169995   -0.88324105617449   -1.89204833398852
N           1.39066858748659    1.87164625457323   -0.84879223795525
H           1.69536570274453    1.06094363860914   -1.38011625114258
H           1.94451960178813    2.66878397734650   -1.13290804930312
H           0.42086150832965    2.04571446443579   -1.09259191120662
