    26
        -50.46060890  Gyration_radius:  2.58718135967 Dipole_moment: 5.776
 S          -0.21505664158116    0.63715929517617   -0.18278777822031
O          -0.33115226133606    1.69256824408042    0.84341286681244
O           0.86083769881628   -0.27197761895907    0.19498319815975
O          -1.54769257085723   -0.16201111505762   -0.10415288755310
O          -0.06906330954201    1.17696591238919   -1.51650161162392
O          -0.56172268361879   -2.12011126247772   -3.42250991853238
H           0.26694208216751   -1.72980958265680   -3.05566700491577
H          -0.40476311409856   -2.24873279677377   -4.35910939805275
O          -1.47733749143115    0.07382844178173    2.67199260269450
H          -2.10511692019840   -0.47362549495939    2.19399283732930
H          -1.20484265281776    0.75351158996302    2.02729731105806
O           1.50325464467151   -0.78166736162087   -2.38758697379768
H           1.61202952640995   -1.03090914247098   -1.46041117746237
H           1.04469273739278    0.07507796623625   -2.31527581351463
O          -2.15177925210083   -0.13891912414572   -2.56813326491663
H          -1.49076156489467    0.56870716810965   -2.62165470116541
H          -1.71019165578468   -0.94336308003078   -2.92642047600454
H          -1.91109308120736   -0.22079907335181   -1.04723139457388
O           1.00572601279855   -0.90267265750770    2.73342291766553
H           1.01944662111625   -0.93524163770400    1.74885218405539
H           1.46567748963845    0.50445673995969    2.77183233133274
H           0.05544471134319   -0.76703597484486    2.94353248702148
N           1.59275928010640    1.57989979654319    2.54344201192875
H           2.50508907615852    1.76051818909384    2.13798014331205
H           1.42938782298195    2.16489383158906    3.35658662536377
H           0.81928550586899    1.73928874765327    1.80011489359975
