    26
        -50.45344792  Gyration_radius:  2.41515732894 Dipole_moment: 1.807
 S           1.36491938314497    0.80045634508578    0.80000030944882
O           2.68494779460885    0.56593946270803    0.04954382971147
O           1.60099666238566    1.46111610523110    2.03265997953818
O           0.56671455331246    1.77003966127256   -0.11549665815862
O           0.65477153696963   -0.45259264146440    0.87490112781355
H           0.27685675983848   -1.79654192651142    0.04104421290510
H           0.38649330368011    1.35885547278408   -1.01974222565517
O           0.12266115725321   -2.52103474012017   -0.60647896191494
H           0.19363185392796   -3.34441117908921   -0.12186748222212
O           0.01557575714803    0.72819714387508   -2.39625657167784
H          -0.35500901019450    1.38104513899990   -2.99264127522795
O          -2.13709952645429    0.96839603036793    0.57382345265797
H          -1.52166583444360    1.66526759171724    0.33059109847976
H          -1.87021853754778    0.71835294228029    1.48937701887184
O           2.04846012594281   -1.00730659618089   -1.85973773640221
H           2.52192867442347   -0.09483179162664   -0.70761447764475
H           1.47482451571750   -1.71743582732117   -1.51535094661145
H           1.45419051502793   -0.42258017004998   -2.35599476247137
O          -1.85267972314049   -0.72436567045762   -1.47423066124144
H          -2.07944797844089   -0.19321085306600   -0.67409396525224
H          -0.76391098999402    0.12718792198371   -2.10695234510900
H          -1.37859660333528   -1.51061582702041   -1.16598259251222
N          -1.03363735184135    0.59696750093637    3.02393682772928
H          -0.87587144612612   -0.38467469250464    3.21413211221968
H          -1.37240233297554    1.02731642992187    3.87620527885659
H          -0.12643324887798    1.00046416820302    2.80622542387595
