    26
        -50.45613979  Gyration_radius:  2.4397059465 Dipole_moment: 1.869
 S           0.82974711820375   -0.35060572530189    0.93274611477994
O          -0.35384683475012   -0.97602752633079    1.54426981529354
O           1.26606313382388   -1.09863029100343   -0.23730993023083
O           0.54502598560168    1.04170104948511    0.60396465387168
O           1.97909543257169   -0.39291465762311    1.96261323147703
O          -1.87394820532913    1.33223859828812   -0.42274106773336
H          -1.49918140430933    1.59029820468956   -1.29085101912517
H          -1.07346944188950    1.34443863007263    0.14999255595732
O          -0.61315537594487   -2.21896325056282   -1.75283242031343
H          -0.36287108714002   -1.76940124731356   -2.56887648426218
H           0.13700715692455   -2.05253506810417   -1.14293125068780
O           1.41705610036656   -0.50027814145369   -2.83788140278809
H           2.30289644673456   -0.54361293088322   -3.19990234980395
H           1.50080003628721   -0.67912897330494   -1.87819589701923
O           0.11741617173520    1.81650936167016   -2.11713318210194
H           0.51856888917301    1.07798938638940   -2.60263283664646
H           0.54224895232831    1.80515731911725   -1.24800334205051
O          -2.20102888765224   -1.11699380793127   -0.11126565835704
H          -1.50245786641215   -1.15065359133487    0.67259641255775
H          -2.20767067689546   -0.07748343485882   -0.33020806560057
H          -1.71217021041472   -1.60487837801151   -0.87183230573447
N           0.40309754797002    0.98671509943727    3.48163906673646
H           0.32107696274100    1.36163539650990    4.41820950375442
H           1.57622533824632    0.12724317258701    2.71428044607268
H          -0.33770023876337    0.31292913865581    3.32233356589023
H           0.28117494678887    1.73525165712321    2.80995182606903
