    26
        -50.45564924  Gyration_radius:  2.41813804322 Dipole_moment: 3.082
 S           1.49252074173945    0.99407101460032    0.08303689123977
O           0.66530842874373    0.67683068777054   -1.05617505613935
O           1.97103366987558    2.33307937831751    0.14074631521544
O           0.72608679898957    0.61625279006897    1.36368867409800
O           2.68547373289609    0.01101805119273    0.12234634431558
H           2.32471278897985   -0.91356691996485    0.00956595117355
H          -0.30329335146310    0.94733877016548    1.26129327531269
O           1.67200595456362   -2.36976731271417   -0.23788628124059
H           2.30159646255742   -2.93064466805882   -0.69447016451756
O          -2.14222862248809   -1.27248562363603    0.18913403146454
H          -2.97807166797147   -1.63689293025723    0.48364391869323
O          -1.60147318032215    1.30225905345888    0.95337659495313
H          -1.41789311499194    2.01792545841889    0.27232742247498
H          -1.92026287466668    0.50140042670463    0.49125178774020
O          -0.26036791573483   -1.68050231536285   -1.80329105285713
H           0.04508974547278   -0.75280006063249   -1.76135802309314
H           0.92140444212744   -2.19064411071539   -0.89050028194669
H          -1.07742468631639   -1.68008754563619   -1.27889406127799
O          -0.16640842501326   -1.97064997314863    1.81459029300269
H          -1.46031414755141   -1.58053517590648    0.84145332837085
H           0.18622480438865   -1.08868011282096    2.00270752347296
H           0.50301293663543   -2.39362317384908    1.25861513910941
N          -0.71084477758711    3.12782127206355   -0.72267286036272
H          -1.01207407314327    4.09186248799339   -0.79840031677694
H          -0.69570745936825    2.72378768608149   -1.65121691997349
H           0.25189377942393    3.11723283591906   -0.39291249217692
