    26
        -50.45326773  Gyration_radius:  2.46139976837 Dipole_moment: 2.211
 S           0.61555916942707    1.60700024974306    0.87306000135917
O           0.47188493464842    0.95404037090974   -0.40317424341407
O           0.06669876080820    2.91402014634775    0.97792131849359
O          -0.04322931018869    0.71195699902767    1.95667339749508
O           2.10197269995260    1.62574604910412    1.26077155102769
H           2.57544491809064    0.85753090559461    0.79715803948616
H          -0.19851992907262   -0.22602025375531    1.62675573755083
O          -0.59205977334860   -1.66068325139779    1.13995228874011
H          -1.09526561074600   -2.11996353124952    1.81464992480439
O           3.24841083065168   -0.36589097468390    0.15553179815090
H           3.81185815355652   -0.83229948584585    0.77626548934070
O          -0.00125734034823   -0.66364076169038   -2.42689884218271
H           0.28496488010707   -0.27639835015147   -3.25516387415174
H           0.19240652321835   -0.00181583026266   -1.73226546236960
O          -2.19653530993808   -0.90100206963800   -0.69165871513918
H          -2.33805403622358    0.05009380378846   -0.44826202752593
H          -1.62350297893331   -0.89578498463742   -1.47252555189792
H          -1.25763428471979   -1.40993361967947    0.40598208124122
O           1.49039913585416   -2.15179612713385   -0.61384315241267
H           0.81386726544935   -2.13033790287569    0.08035530736161
H           1.04349606551582   -1.80643459496141   -1.40419782549082
H           2.59264758048073   -1.03606687301988   -0.18789494470393
N          -2.47690568142383    1.67433050217719    0.09747984627746
H          -1.55524011677057    2.05972494544522    0.28397897936632
H          -3.00205903785267    1.73803135753612    0.96163059862467
H          -2.92934749818575    2.28559327132248   -0.57228171002589
