    26
        -50.44506449  Gyration_radius:  2.49510378728 Dipole_moment: 5.630
 S           0.46323308807985    1.24373371338326    1.97538314666061
O           1.60389731725599    1.42984151549723    1.12387481724954
O           0.37882525082797    1.98091202203275    3.18018693749902
O          -0.82305842852707    1.48904782486765    1.11405473288267
O           0.32210420231852   -0.26875759759017    2.30851853585530
H           0.73885262222986   -0.82814678842822    1.59079681857834
H          -0.57164264406914    1.90505783965695    0.23637860266143
O           1.45950991302122   -1.76562464848845    0.51724826437612
H           2.16149212327476   -2.25282749438850    0.95148419685421
O           0.11701384528644    0.13891361811543   -2.50253427688571
H           0.07430972193187   -0.11244557887525   -3.42564045451444
O          -0.37947282761829    2.43793481761008   -1.23045994321748
H          -1.20513974324414    2.78860182608788   -1.57064763664888
H          -0.16952079608069    1.63748144862656   -1.75834120557949
O           2.45011060535744    0.05494520664719   -1.00669315920650
H           1.91195836257245   -1.11132904768122   -0.10826083263757
H           1.74454976536168    0.19498268929711   -1.66109577296276
H           2.32310310364823    0.74155444865869   -0.32580615112965
O          -0.81887140669799   -1.83349905091763   -1.10298753731679
H          -0.04457459748186   -2.08179176050088   -0.57937079123027
H          -0.28935104319765   -0.61981831926551   -1.98453935755371
H          -1.49319174096932   -1.55546564319798   -0.43608325808790
N          -2.39340516783867   -1.01386574019422    0.93778226273643
H          -3.40461024246400   -0.96893293761632    0.92529130517270
H          -2.03840719727396   -0.07320833707560    1.08448836072159
H          -2.11771407569955   -1.55729404626090    1.74697237572547
