    26
        -50.45250594  Gyration_radius:  2.46500282656 Dipole_moment: 1.503
 S           0.04550138406355    1.94730049328038    0.16266660999386
O          -0.61275053685558    0.89982443549977   -0.58569729382945
O          -0.79711111201011    2.66889297381026    1.04978430463424
O           1.23886970885447    1.31836226501724    0.93186225655868
O           0.75401033510018    2.90102939360021   -0.80095332515037
H           1.34001790847609    2.29449180949957   -1.35665847719657
H           1.13808583737496    0.33219061205075    1.10545126432874
O           1.11157757554911   -1.19844919674239    1.40880585214271
H           1.36946632588015   -1.38423069665987    2.31296603478269
O           2.26175851723513    1.23564144089345   -2.01009138281823
H           3.16986367724685    1.39584149047607   -1.74459384584231
O          -0.90327613774304   -1.49746453153272   -1.66440690548013
H          -1.37629488417275   -1.42624008321420   -2.49460293987571
H          -0.84643228341364   -0.59005374305628   -1.30073150398310
O           1.82862101452708   -1.26328510296769   -1.28718034557470
H           0.93535316767422   -1.51549669092719   -1.57521810830948
H           2.07219718362280    0.28714073092888   -1.77355395801619
H           1.80495578287529   -1.32884938817856   -0.32230137599212
O          -1.25782040629191   -2.09208291280883    1.05227621839598
H          -1.81452388307757   -1.31123935793631    1.30055994512669
H          -1.28603697761797   -2.13684283655973    0.08497840788541
H           0.17634819635428   -1.58545774026522    1.28989560982536
N          -2.51801716352363    0.23633019209472    1.56091441682844
H          -3.50936519250729    0.35704823305605    1.39069623699023
H          -2.01913030871250    0.74387106949690    0.83529308981527
H          -2.30586771890506    0.71172713117896    2.42983918470291
