    26
        -50.46300168  Gyration_radius:  2.47117463648 Dipole_moment: 4.025
 S          -1.32159661151610   -1.38217195569847    0.85941720920312
O          -0.70413821702191   -2.65564352722595    1.10627213847886
O          -2.72098844505200   -1.26318950303042    1.16996797541114
O          -0.59785214204070   -0.33561204383605    1.86749829916655
O          -0.98669046029135   -0.85538842383762   -0.46631915187412
H          -2.73728401921850    0.41970073749267    0.82065637322593
H          -1.04856473557646   -0.49254677040463    2.69147369989278
O           1.74383854972712   -1.63703065988442    0.58106012623618
H           0.91292538042721   -2.08230483445617    0.83273685255218
O          -2.72374783408913    1.37870787929628    0.63692870882833
H          -3.62646651250647    1.60190921700326    0.40267107056585
O           1.39545720686731    1.49436705552932   -2.48525658420046
H           2.32873119149714    1.64836771535836   -2.32764433966549
H           1.28045916458958    0.52151888759763   -2.48683181527830
O           0.98797122646166   -1.18523364245148   -2.16147923068463
H           0.73114943571328   -1.77910380700780   -2.86842598895281
H           0.20830186545614   -1.12045974410793   -1.56198225158658
H           1.76577048931712   -1.64109365246503   -0.38415208105181
O           1.90925728838678    0.88616159239067    1.42647656259575
H           0.69425044267079    1.45048606128166    0.50379558117778
H           1.57669925900533    0.82675152770611    2.32389000711623
H           1.94403673175351   -0.05248217600588    1.11349813624664
N          -0.06414171553282    1.58160602178815   -0.22045214945367
H          -0.50885188037800    0.63207621937697   -0.33704441256620
H           0.37177120063624    1.84029046564200   -1.12832182934093
H          -0.81029685927071    2.20031735992330    0.09156709398721
