    26
        -50.46300128  Gyration_radius:  2.47125151902 Dipole_moment: 4.009
 S          -1.37177039694489   -1.36794013629958    0.80281762979248
O          -1.99841317974143   -2.17856976457323   -0.20425987523925
O          -1.80306049166258   -1.56362289591754    2.16097984409360
O           0.19183577737713   -1.80400313100316    0.81268624539365
O          -1.32214292651151    0.04577309872111    0.42040804590543
H          -0.61216223964561   -0.49181630390716    2.78274136951045
H           0.18091215777884   -2.60902230321920    1.32119068189156
O           0.07899244014897    0.11136946175412    3.11763955124262
H          -0.26867823380146    0.45853338249875    3.94097696763603
O          -0.26212711427211   -1.29393627369032   -2.07812013632107
H          -0.90220348435626   -1.70401525967138   -1.46646812763041
O           0.85775746305966    2.86619977230171   -1.18196922163564
H           1.47673225657192    2.77913258894115   -1.90922364941529
H           0.03270609435369    2.42897963048561   -1.47801471655027
O          -1.32952463477750    1.37141249954890   -1.84354265448466
H          -1.40600081626226    0.88074933817557   -0.99218563090945
H          -0.63444259361920   -0.43561990018474   -2.31651709986008
H          -2.19770402614754    1.73791883719339   -2.01796339304606
O           2.15122218006058   -0.90376082050496   -1.01282835710256
H           1.29837707725606   -1.05223867489731   -1.49314332928934
H           1.67108504254308    0.19311426347102    0.08975675087193
H           2.30906730712473   -1.72587459679628   -0.54520312570480
N           1.13736056957488    0.91060721525909    0.65254121137994
H           1.19001198930695    1.83045039820686    0.17094190261260
H           1.40088312471882    0.92230010512832    1.63628008922838
H           0.13128665781914    0.59387944896033    0.63047903758064
