    26
        -50.45039925  Gyration_radius:  2.51287750546 Dipole_moment: 7.278
 S          -0.63065031205959   -2.11558679316856    0.71526334518989
O          -1.77056057668726   -1.68628361152538   -0.13226054354967
O           0.00804140836666   -3.30649462920969    0.26552630716292
O           0.41897298624381   -0.91395309647105    0.55778772558582
O          -0.98117174947577   -2.02319316099157    2.12612477629459
H          -1.64081730361238   -0.62133350419951    2.13398324476471
H           0.80817091495211   -0.97691192686292   -0.34754857173821
O           1.50962745982142   -0.91229000818520   -1.84696602994340
H           1.92756830010076   -1.77101125423447   -1.93465006407838
O          -0.90927494958949    2.01889800118682    0.15532690335737
H          -1.27537007921226    2.83764912345267   -0.18166277745974
O           1.67023170801890    1.46827874184568    1.06735209468832
H           1.43590347043318    0.54807460190020    1.25117248177619
H           0.83768933966450    1.86317197699533    0.76373686014675
O           3.20473577130641    0.95081722777937   -1.05932082144430
H           2.22263118817199   -0.25527499469614   -1.64354941527095
H           3.33613205065279    1.77041769311113   -1.53770524308306
H           2.74571393065636    1.18830365656677   -0.21739238669793
O          -1.04525263676533    0.26762324696385   -1.77651064119050
H          -1.40103547034341   -0.51686573461932   -1.30447777676349
H          -0.91465784826452    1.37614596797469   -0.61425181247892
H          -0.18373278236145   -0.01868059212771   -2.10609926973991
N          -2.23049503203476    0.09622709153842    1.59066135734058
H          -3.10205945730451    0.33239849941487    2.05168189500589
H          -2.34443279140005   -0.53500602477535    0.72937271557986
H          -1.69590752924982    0.93487952241883    1.29440562650960
