    26
        -50.47068179  Gyration_radius:  2.43159977482 Dipole_moment: 3.181
 S          -0.35775250686261   -0.54597426532268   -0.63729153705745
O           0.25375211052584   -0.42181498415734   -2.06079652883839
O          -0.05922013124637    0.70088001147412    0.07888276970310
O          -1.78483998325172   -0.75725512470665   -0.72803430593971
O           0.34963718546762   -1.67594165218981   -0.03402897407987
O           2.21814095520520    0.80611951944731    1.48400601925817
H           2.74640869921481    0.32461055306831    0.81600393199005
H           1.41647187425650    1.06143004798399    0.98591262767816
O          -2.42981911082122    1.78514923939761   -1.01324722151114
H          -1.74442185466113    2.14165907017938   -0.43969295395560
H          -2.39759280345333    0.81603965848753   -0.86579291704686
O           2.80924641475731   -0.77938832688553   -0.61659981975434
H           2.77215031722960   -0.41576167003560   -1.50355781672201
H           1.95539328131866   -1.23365133607184   -0.49334550090586
O          -1.56981106789418   -0.06848868213808    2.11248814861203
H          -2.23379086396324   -0.58512586783749    1.64783945570502
H          -1.08623240138122    0.40029755460089    1.40277515153411
O          -1.19762702411382    1.32596108196397   -3.29330848974147
H          -0.25584563766726    0.26946525173379   -2.57688497120236
H          -1.82538251267792    0.86576355006059   -3.85470732574248
H          -1.71747170147373    1.66617108445896   -2.52038654107406
N           0.83903196407997   -1.15955003804330    2.46822339046320
H           1.50961206681892   -0.33564056767935    2.27421314202787
H           0.69663663219341   -1.58266692444302    1.50722859399767
H           1.19355315586121   -1.82299470728966    3.14756394934356
H          -0.10022704744844   -0.77929248605067    2.71253772328714
