    26
        -50.44551806  Gyration_radius:  2.51919585536 Dipole_moment: 3.366
 S          -1.36284302903055    1.54055734330255    0.31259483549418
O          -1.72525230706168    0.57473092795930   -0.68080581026175
O          -2.19671580601256    2.66220367340011    0.52819921591250
O          -1.16168195944534    0.81129556543005    1.67595154545088
O           0.07755876281353    2.05636417330432   -0.01372146698361
H           0.60824333058701    1.34679870331084   -0.50242633141954
H          -0.78714182549228   -0.10034820502801    1.50839912210915
O           0.02318728341649   -1.46709261591355    1.39584896917899
H          -0.07935043094560   -2.01373685866859    2.17683811668172
O           1.54210402291716    0.32750953769086   -1.19431115725386
H           1.74163438069554    0.61385832002154   -2.08666105912509
O           1.29007378212776    2.09761880706279    2.46716521969397
H           0.93181881342757    2.39784755709785    1.61889318651901
H           0.52619423157269    1.92953921659501    3.02482692670687
O           0.44314077940848   -1.98199033784796   -1.33914076092529
H          -0.38038397652897   -1.89204056302564   -1.88217213144726
H           1.11752623130537   -0.59420807403094   -1.28082276212690
H           0.14527127135177   -2.05545347519160   -0.42199501856474
O           2.28336723264943   -0.22117137592760    1.46973217653239
H           2.07890007041226    0.62090977241463    1.92812137459017
H           0.95093428123315   -1.07333175416687    1.44356279654135
H           2.40517648078729    0.00459077951424    0.53803408774309
N          -1.87725208893940   -1.52081707356403   -2.62151425372757
H          -1.92388334555059   -1.19181747074115   -3.57753250546546
H          -2.01687600762647   -0.71801591605209   -2.01049315833292
H          -2.65375017807459   -2.15380065694871   -2.47657115751822
