    26
        -50.44406817  Gyration_radius:  2.49678335916 Dipole_moment: 8.338
 S          -1.40220002683967   -1.83011297218010    1.04318655204614
O          -0.93048219199862   -2.12286258418395   -0.28614668681548
O          -1.43556627740878   -2.90850176797165    1.96418392595664
O          -0.46926316827154   -0.68308220615976    1.61132438313021
O          -2.74426784677933   -1.10808116265859    0.98079884359470
H          -2.61042750528169   -0.39213269271239    0.25592673246157
H           0.46053172669439   -0.82511225442693    1.29953863319445
O           1.98230825563662   -1.01008997988705    0.72340081819599
H           2.40042519105558   -1.73309685816147    1.19366930151599
O           0.29319445134711    0.73614497141842   -2.09121298981656
H           0.07849241785327    1.43318788222207   -2.71280486777183
O          -2.16810190621610    0.66976496615400   -0.71594219194897
H          -1.75302258031612    1.34689237483043   -0.11841850273339
H          -1.43804019196811    0.32744346371069   -1.25498698137239
O           1.97752729200093    1.60789180542084   -0.10862948166720
H           2.86763925935411    1.79235365058809   -0.41467648726876
H           0.82239603617714    1.14172352932330   -1.37618175317066
H           2.01671246842714    0.74576190908053    0.34151917860376
O           1.31440341764028   -1.79531123651701   -1.63042387399324
H           1.80192268252152   -1.34637936016119   -0.21720094361578
H           0.47331321756474   -2.16009397434916   -1.29282605316815
H           1.04531865161802   -0.97737999357015   -2.07594824219565
N          -0.80824699059397    2.21026551393382    1.01110370237704
H          -0.75291862378881    1.44854186192922    1.67949260989534
H          -1.15907773939794    3.02916401820508    1.49013538694007
H           0.13742998097334    2.40310108612374    0.70111899762193
