    26
        -50.44585776  Gyration_radius:  2.49364546314 Dipole_moment: 5.777
 S           1.03865676642192   -0.97152707477762   -2.02104772016483
O           1.92767586848151   -0.88383154145347   -0.88963502756391
O           0.85978545360923   -2.25628366637636   -2.59202220519397
O          -0.35500775048223   -0.41007833212725   -1.56138154779179
O           1.43295155807909    0.07858981543551   -3.06753394506467
H           1.64606806290709    0.88844602579480   -2.51706594110036
H          -0.74249388769724   -1.05187667082488   -0.87046745449300
O          -1.11192658390708   -2.02770014059281    0.24604270938968
H          -0.99768700338143   -2.90713031526170   -0.12125390220023
O           1.00185953425918    1.18207758299360    1.84229379534590
H           1.00826890696817    1.83990238012492    2.53768248175394
O           1.86374212148679    1.82598386791991   -1.22830826040251
H           1.05765912122629    2.19426623573536   -0.84311446524015
H           2.13810071994156    1.09737200540530   -0.65137038474980
O           1.03237341156177   -1.51906826709535    1.56310940167455
H          -0.32449281221368   -1.87633375919081    0.86735244819437
H           1.58573578182815   -1.46499729472934    0.76433527078723
H           1.00942449399770   -0.59761814700021    1.88157022568920
O          -0.80685445649527    1.83880542308478   -0.03097341768266
H          -0.73922627903966    1.18233666538540   -0.73987072573685
H          -1.57346272475581    1.51789822800663    0.50093015917263
H           0.33904075789633    1.47546857649718    1.17824822103295
N          -2.66894526189479    0.41309736450894    1.33048674312462
H          -2.35294323942513   -0.50107997024274    1.02082534322943
H          -3.63930990618927    0.51096113803178    1.05897450250526
H          -2.62899264318444    0.42231986074929    2.34219368547090
