    26
        -50.44530616  Gyration_radius:  2.42535302308 Dipole_moment: 3.790
 S          -0.78586104104247    1.37801010642678    1.15655622806381
O          -1.95969391699106    1.33896580499296    0.32950485941460
O          -0.91748485768689    0.95078851395383    2.50601577449057
O           0.32705087245717    0.55411892102806    0.45083731468670
O          -0.17712239398972    2.80028858729318    1.08652531367942
H          -0.09218998277912    2.93722020821862    0.10108213382235
H           0.74117644847386   -0.19729527453697    0.96655716897088
O           1.72622417529634   -1.36669252142842    1.44578525135355
H           2.39405767154543   -1.03150724592533    2.04744374313261
O           0.44037213616329    0.00083446280907   -2.30027356118491
H           0.33922933749586   -0.24310872022279   -3.22238787268739
O          -0.31454541803970    2.55751460082666   -1.48869844295859
H          -1.23118358340945    2.30522029921138   -1.32038107528941
H           0.12508075269547    1.72922164842465   -1.76456630192690
O           2.63291905618311   -0.92258905101087   -0.99964022408347
H           3.20422439163545   -0.15259697760435   -1.01142241665673
H           2.13388353269960   -1.38904076027264    0.54319730794757
H           1.81096914289128   -0.64272294576708   -1.45833546888233
O          -1.67339316023575   -0.94664060939646   -1.09336708742909
H          -2.00798807620420   -0.12051746108977   -0.70980988450693
H          -0.33777019130930   -0.40971202769089   -1.82164388733102
H          -1.49186284281830   -1.49785600609371   -0.30061609312181
N          -1.27266219026438   -1.87648874584927    1.44369314994060
H          -0.32248533197082   -2.18915827506989    1.60910805079746
H          -1.89691508131587   -2.56078573227151    1.85321166814286
H          -1.39402945956634   -1.00547078873783    1.95162436138477
