    26
        -50.44585778  Gyration_radius:  2.49366849728 Dipole_moment: 5.778
 S          -2.39872249648830    0.50968379276420    0.30999122628333
O          -1.61202945674496    1.63443649379190   -0.13075974336099
O          -3.50455608684526    0.14977996788837   -0.50005537866923
O          -1.42548486532672   -0.71773273834228    0.43373692166483
O          -2.79457645586672    0.70313748574884    1.77938123535008
H          -1.96223251426573    1.07119572139970    2.19912306529779
H          -1.10893745480962   -0.96627029271807   -0.50291194685074
O           1.92143638205283    1.44390197456053    0.13054318589792
H           2.83820347131755    1.63587442193308    0.32806631303691
O          -0.62055059392720   -1.11601370876282   -1.94332385981755
H          -1.40852867008612   -1.12704031726284   -2.49133192648730
O          -0.45615761894017    1.61615894538261    2.34417332167668
H           0.22779860189469    0.93520098443168    2.39058740953308
H          -0.42213147952872    1.98170963487554    1.44738690853879
O           1.11206866024028   -0.71133747849217    1.51362596229781
H           1.54759283093499   -1.35039951367026    0.90088280896191
H           1.67094346606771    0.66172630856786    0.67071526293359
H           0.16935849384340   -0.83546307457515    1.32928236983865
O           0.26877742706907    1.29115361937064   -2.01882681001537
H          -0.19899982976210   -0.20243384525013   -2.07244725555940
H          -0.48037745405224    1.65090419937510   -1.51241151653744
H           1.01896518747272    1.38169800531204   -1.40236059552095
N           1.88855277368882   -2.27612439465972   -0.56047005032962
H           2.71776129190707   -2.00678930345676   -1.07534934560204
H           1.08566208597296   -2.07941276713114   -1.15048567830127
H           1.92616432417381   -3.27754412107186   -0.41676188425895
