    26
        -50.44530614  Gyration_radius:  2.42524974939 Dipole_moment: 3.786
 S           1.11479917954820    1.20521019213990   -1.07567171126392
O           1.74190279813252    1.63891185853485    0.14175321341973
O           1.92008900055529    0.51085456442957   -2.01925156946717
O          -0.11881019284364    0.33843801485804   -0.69878732477849
O           0.41911644198514    2.42136417187025   -1.73563089047201
H          -0.14267205483446    2.76652000066555   -0.98582992971258
H          -0.16159798969274   -0.58982730781033   -1.07126134053767
O          -0.68061117038540   -2.03528439572869   -1.52649360276349
H          -1.00253168660244   -2.01822825052576   -2.43006795359580
O          -1.49330225475864    0.44745255565340    1.74863099697188
H          -1.82708644362853    0.46058654242858    2.64776788559356
O          -0.68038477351288    2.83977609169634    0.57230512269162
H          -1.12014830756156    2.02293714158120    0.88004586666931
H           0.22278424697653    2.77403218966523    0.90726798982587
O          -2.69142330611062   -1.24017583811142   -0.00258195828374
H          -1.46932803259373   -1.93457522481654   -0.93555802293593
H          -2.22263841554080   -0.67717414659112    0.65134348613959
H          -3.26281209997780   -0.64233689768656   -0.48787647290145
O           1.01777477595004   -0.24351342539582    1.94818552277029
H           1.29333609641847   -0.99446087113112    1.37771133745045
H           1.41782039737387    0.52171760118996    1.50557597787137
H          -0.54671447328615    0.12663781863263    1.81281086608498
N           1.97912652973651   -1.81853147126227   -0.06589243221455
H           2.24816291506173   -1.09031064885322   -0.72062744561468
H           1.26065079273499   -2.37462390056912   -0.51586286153515
H           2.78449803690774   -2.41539638479790    0.07799524063238
