    26
        -50.45488634  Gyration_radius:  2.44216784998 Dipole_moment: 6.272
 S          -2.05294338828987    0.94745049689881   -0.15338838649050
O          -0.92543313098189    1.56118636599694   -0.89079220370957
O          -3.30333918496359    1.59018521294088   -0.34641967711518
O          -2.07765721383890   -0.50462971960108   -0.45519691396375
O          -1.68193860650291    1.04603412260379    1.37155014508650
H          -0.70776306713482    1.03917185955173    1.50737887682131
H          -1.12590213974163   -0.82165223729380   -1.61475278048309
O           2.00364358708435   -0.96819501800933   -1.14872396348879
H           2.76710545255402   -1.50965724577185   -1.35115163443264
O           0.91853451794676    1.15998818948844    1.94711241994251
H           1.01603840037837    1.87767937477566    2.57435699901920
O          -1.28329682664498   -1.93352034939127    1.60819673528174
H          -1.63262696427307   -1.47257524405021    2.37349097568051
H          -1.66345498082709   -1.46939656345873    0.83097491187636
O           1.33028385697104   -1.49442061054330    1.28388170368960
H           0.40596743100860   -1.81459982856850    1.39118302895078
H           1.73946428667634   -1.21040991749227   -0.20494338338835
H           1.34227059500673   -0.63454139956407    1.72859148720644
O           1.70231448504477    1.76500503004413   -0.45475262610177
H           1.32399216790993    1.46874680927355    1.08707687510094
H           1.97341968237421    0.90409668679718   -0.80850430830345
H           0.76265128128283    1.87692182477609   -0.70139597683648
N          -0.36902289651351   -0.47478911886523   -2.29238560823956
H           0.57259857135454   -0.81381312495473   -1.99775359698657
H          -0.46200453680463    0.54753467399554   -2.01671030849272
H          -0.57290139906476   -0.66180024958540   -3.26692279061934
