    26
        -50.46311491  Gyration_radius:  2.47892166105 Dipole_moment: 6.174
 S           0.49044284190805    0.33752954632540   -0.59082510385533
O           0.42017202600204    0.23492377648879   -2.12902660585510
O          -0.48581820646393   -0.60380295485726   -0.03199958508997
O           1.83355567060367    0.00929366940931   -0.16483456151676
O           0.13739982593662    1.71352747285095   -0.20849494704112
O          -1.28041365539204   -2.15617471063467   -2.17796523690089
H          -0.71617694742048   -1.81501177646711   -2.87537230677680
H          -0.92613596711630   -1.78515999324276   -1.35511113479911
O           2.36526527110673   -1.78152809945120    1.71504076407057
H           2.26517151817632   -1.16332185275030    0.95847046207422
H           2.43243176727487   -2.65790202536610    1.33308683075879
O           0.09824644967153   -0.67061786952160    2.55990946192267
H          -0.31201311067946   -0.73255967737748    1.67053193250122
H           0.87802136190141   -1.26449591538944    2.50035697603413
O          -2.95404910758668   -0.12220519762340   -1.08087601914789
H          -2.95291929890359   -0.90647643522432   -1.64603805454537
H          -2.19890421857192   -0.26266682131006   -0.48336972260923
O          -1.58551045728524    1.76247671364938   -2.32902649819505
H          -0.36660157487491    0.83289873448016   -2.37964166614569
H          -2.27939923677653    1.15643740031053   -1.96433900918117
H          -1.24630997008621    2.25400419857789   -1.56908195125006
N           1.29399824324446    1.55746582105497    2.07955524930498
H           1.27130595502407    2.32726247112449    2.74107841193588
H           0.77003523509190    0.65871701102580    2.43749971765481
H           0.80079177214429    1.78896792353134    1.14933686390788
H           2.24741383308162    1.28841857045545    1.84113573280137
