    26
        -50.45488628  Gyration_radius:  2.44211231006 Dipole_moment: 6.276
 S          -0.66837026517143    1.92315278485098    0.99566081989605
O          -1.64270445988655    1.16698886093831    0.17647516701457
O          -1.19414528909199    3.08933543086779    1.61016844693656
O          -0.02793235164425    0.98537625311128    1.94985075879004
O           0.47902369901308    2.36163268808902    0.01397490305883
H           0.57991263878552    1.72653529154679   -0.73048801691072
H          -0.77266630795605   -0.35628944551122    1.95729017893551
O          -0.35599007997547   -2.44918734497533   -0.38309973882299
H          -0.20037603221905   -3.38148030363691   -0.53687330464008
O           0.83669977045125    0.83346138441423   -2.14035015561370
H           0.90008248511254    1.43887644516826   -2.88022981548304
O           2.46833523325647    0.48322643915307    1.28232500412950
H           2.80043578031057    1.31491412375766    0.93856106585997
H           1.57400826585175    0.68710055656902    1.63265642592671
O           1.90866056118440   -1.25048324181120   -0.66948848632070
H           0.54579259184135   -2.00373945579990   -0.47060948469786
H           1.74243517687544   -0.58196990894012   -1.34974212116240
H           2.20060426528841   -0.73502984853193    0.11630980659503
O          -1.45193010138686   -0.38577883319540   -1.98907239676637
H          -1.70409346897473    0.23668736619547   -1.27825120402438
H          -0.04032610504043    0.36113213105371   -2.22597063699383
H          -1.21644651198800   -1.21689088391705   -1.54892459330692
N          -1.53241500839401   -0.97670911227859    1.52197281819316
H          -1.92912009004263   -0.21112368684277    0.89983320824666
H          -2.19325810261117   -1.34949116872380    2.19313084679299
H          -1.10621629358914   -1.71024652155891    0.91489049437277
