    26
        -50.45488636  Gyration_radius:  2.4420409658 Dipole_moment: 6.277
 S          -0.99477845399067    1.83315042812558    0.88585258949940
O           0.11692957758482    1.19607845585050    1.62741658695552
O          -1.52346426070152    2.99754173288857    1.50123050317898
O          -0.56335950060904    2.04566092962250   -0.51737831536109
O          -2.13968407700213    0.75804870142099    0.80754801730214
H          -1.77783023328461   -0.15658551365318    0.81621053069192
H           0.94355068829439    1.79851596828767   -0.65186475192912
O           2.09648590704123   -1.14892551487051   -0.74522279340679
H           2.71465856103065   -1.69644201710139   -1.23012408970236
O          -1.37425697862124   -1.79221714090251    0.93685868400676
H          -1.95798582758878   -2.20716753018816    1.57327713189062
O          -1.77544314384093    0.38487297031342   -2.16134506601344
H          -2.66306413784561    0.29731684899852   -1.80819065078769
H          -1.34921379232954    1.08351514565779   -1.61887724519129
O           1.00349893938661   -1.31244241828063    1.86634937643067
H           0.74083483911343   -0.37670351720345    1.97512688303818
H          -0.47302256590457   -1.73193115463378    1.36538347565412
H           1.55079521954147   -1.34786492662020    1.06694457511485
O          -0.26368991383801   -1.74224865947871   -1.59681613769446
H          -0.77071769087311   -0.98087054681683   -1.95962329213726
H           1.18406834660578   -1.37511687001065   -1.11351692288999
H          -0.74955170925833   -1.99917756343837   -0.79980773519467
N           1.85572007506611    1.46262881289308   -0.19618577382006
H           2.10717935974753    0.50857696630278   -0.53549085288811
H           1.44345206109742    1.37680065737483    0.77964017124132
H           2.61888870117474    2.12498575546230   -0.26739490798508
