    26
        -50.45475612  Gyration_radius:  2.58840927715 Dipole_moment: 6.608
 S          -2.36298525781645   -1.01218486492730   -0.58342167864238
O          -2.71523744244128   -1.04657871423972    0.83252963359518
O          -3.41455316363302   -1.32780114199299   -1.49570079341311
O          -2.02561342346042    0.56935572107232   -0.86304905016185
O          -1.08579727007228   -1.66449116635360   -0.80933637346826
H           0.11466903670181   -1.38614194070087   -1.79545707528870
H          -2.89898264038415    0.91045741710948   -1.02819590951983
O           0.94975004601739   -1.17936625634866   -2.29371603288262
H           0.99740321133719   -1.81757828210949   -3.00619522907074
O           1.92544627748389    1.77304715361299    0.26519967071363
H           2.58144664517070    2.43895948704324    0.05655743334419
O           0.38329727843133    1.66921671076403    2.48401751775565
H           0.91118826335059    1.80165303294927    1.66920723528545
H           0.95329526334685    1.89729456579191    3.21962373513095
O           0.41794180365880    1.45372052722937   -1.82742240652675
H           1.32917558527710    1.71346707487156   -0.53824993201544
H           0.72173142391185    0.59904716513614   -2.18247923841173
H          -0.47803366596517    1.27644430432534   -1.50120429677378
O           1.83049981019571   -1.01283544214362    0.34311176271003
H           2.04386962987107   -0.06578316505382    0.35944077943372
H           0.39626347569392   -1.07839691847536    1.15812175701367
H           1.64872470843447   -1.22087115352395   -0.58779373122261
N          -0.36486806876652   -0.87996199427494    1.86574241775304
H          -0.29524531098672   -1.53869858115244    2.63484980224972
H          -1.34210571592354   -0.96565037770425    1.41778001121021
H          -0.22128049944173    0.09367682909939    2.20603998120247
