    26
        -50.47356265  Gyration_radius:  2.43512740659 Dipole_moment: 2.299
 S          -1.53530188411434    1.01401460194124   -1.17278054034486
O          -1.42368751610762   -0.42559114320883   -0.95152308494043
O          -0.77680517719858    1.43819729369569   -2.33242137357665
O          -3.05695045468761    1.28788860192625   -1.52752194486692
O          -1.25480290867505    1.77225113289862    0.02336839407506
H          -0.87574355779178    1.25764118739683    1.46984398235129
H          -3.07549641006644    1.04329675635672   -2.44643838475648
O           1.57261843038112    1.22538856782507   -1.27861764738326
H           2.09029617767138    1.97800148056206   -1.57084151852521
O          -0.58926647842244    0.92243843335683    2.36065001702822
H          -0.88736790370248    1.57636427308091    2.99417312732976
O           0.88341364213272   -1.43605578359584   -1.78747762658962
H          -0.04139962480904   -1.14285348039002   -1.63798199901924
H           1.38113367554111   -0.61031685653143   -1.87325670732765
O          -1.27847799706432   -1.57453656339968    1.44301300811478
H          -1.16849543937136   -0.78334122075091    1.99647990191293
H          -1.50126237594896   -1.22164299171616    0.55504264403802
H           0.66809372486658    1.35796309782520   -1.65837426845511
O           1.91863697853589    0.48496619461481    1.35126061927373
H           1.10612268463292    0.74350830248727    1.82463446211687
H           1.65349979982131   -1.06701931461194    1.09126288573941
H           1.82644808611905    0.85108192648104    0.45168151817942
N           1.22594757185135   -1.98487827925817    0.76652415966458
H           1.74669591452875   -2.79243573641678    1.08578886939916
H           1.17397531352412   -1.92922067348225   -0.29338274756158
H           0.21817572827913   -1.98510979715226    1.11689423423499
