    26
        -50.45877755  Gyration_radius:  2.39786066591 Dipole_moment: 7.461
 S          -0.81589532945460    1.15341035552080    1.71277540008158
O          -1.79617495195304    0.05522015480243    1.15640975605789
O          -0.80412787503264    1.14959799545830    3.13605956917913
O           0.51062904745771    0.81629760104739    1.13741005158927
O          -1.31545106206027    2.36650933009131    1.05861587504879
H          -1.37028653343946    1.83824835741683   -0.26293613420687
H           1.27693544327277   -0.55252326436931    1.38176024953340
O          -0.85975016736953   -1.32626843476144   -1.54747139922492
H          -1.07143166974681   -1.84148937275762   -2.32661756674429
O           1.71352692862042   -1.44577634291153    1.39843963102185
H           2.17976021459121   -1.49913988671839    2.23341031413547
O           1.44518486782270    1.70062128871677   -1.07634101692580
H           1.97729317104209    2.48338981158621   -0.92990513454363
H           1.13536447258647    1.40467228716059   -0.17089382015005
O           1.73682621917445   -1.07191295134644   -1.36012667963606
H           1.84931624740051   -0.10929088212999   -1.38238451762581
H           1.91653073235580   -1.33648401018368   -0.44360284252042
H           0.13676138750424   -1.26601353306554   -1.51146596593276
O          -0.83918947283846   -2.35592328396358    1.07946325165308
H          -1.47143387773915   -0.86980445375345    1.32225628709121
H          -0.94457554579347   -2.26570829953211    0.12033039609455
H           0.11180823494636   -2.23031645798062    1.25434792769743
N          -1.23270625611353    1.40531307150335   -1.27961127596969
H          -1.31715953360889    0.37098108916143   -1.22895720979013
H          -0.25235888244795    1.63225351535636   -1.53300921931218
H          -1.89939578917854    1.79413631565410   -1.93795591660659
