    26
        -50.47356262  Gyration_radius:  2.43509187683 Dipole_moment: 2.299
 S           0.87351941963146    1.94299197097309   -0.47155409194091
O           0.91784582993225    0.74683611599395   -1.30889709955503
O           1.98695588212911    1.98988577391752    0.45475507500901
O           1.07421066510932    3.17389238746177   -1.45165585482379
O          -0.41688951727701    2.12547013485707    0.14960177698728
H          -1.72263980661939    1.24187498974751    0.02694748302938
H           2.01849195742013    3.16401066970533   -1.56415606310372
O           1.14224765226686    0.15757367732620    2.06842800482151
H           1.33135354890991    0.44926177132470    2.96224542983374
O          -2.52007557316402    0.65032133771502   -0.01939689774429
H          -3.27680180800716    1.22010773262102    0.12402065064737
O           2.06625258542622   -1.32566117338152   -0.11377808819156
H           2.03722222950915   -1.00175074408490    0.79791299683089
H           1.80784357492385   -0.54653716174937   -0.65210510861523
O          -1.22235909226008   -0.63559482935301   -2.07230859392025
H           1.43296749505216    0.89659415708732    1.47744410381280
H          -1.89845907963222   -0.20615524789445   -1.52197542827482
H          -0.42679661718096   -0.07133976715792   -1.96553496027610
O          -1.28830349707690   -1.08537657075994    1.70398119981048
H          -0.47534879750736   -0.59135266237050    1.92022432026776
H          -1.85180256323569   -0.46095582407795    1.21031807735247
H          -0.77643291221261   -2.04320356075151    0.53459195532991
N          -0.32346535340711   -2.40826151882623   -0.35545780861979
H           0.70446150597332   -2.14580578552262   -0.29424139920308
H          -0.73286010676226   -1.83363430289820   -1.15580961483270
H          -0.46113763188101   -3.40319160009893   -0.48360005464467
