    26
        -50.45944175  Gyration_radius:  2.49697732566 Dipole_moment: 2.779
 S           0.74881868355932   -0.38797126605825    0.70119026765137
O           1.70612732998131   -0.79434204719561    1.84852695100964
O           0.94241470983497    1.03112164292223    0.42719743965626
O           1.04611454213652   -1.20007560133362   -0.47405912157775
O          -0.61424966486607   -0.63386819289508    1.17839484532028
O          -2.49454885872276    1.09096381522682    1.80859935864953
H          -2.47837158777111    1.31670837371050    2.73930643331205
H          -1.79339239188698    0.41038125010774    1.67952888852947
O          -1.13339001868317    2.54339745471901    0.02953868427902
H          -0.27604853942981    2.09524113213663    0.25133959085359
H          -1.76865094651911    2.19721731211084    0.69501928838262
O          -2.41090098089012   -0.78854315460671   -0.70348365426228
H          -1.67762743231701   -0.89292619122970   -0.04753149515672
H          -3.17707800145752   -0.52933664836663   -0.18313113358099
O           0.89208950549772    0.64316919525870   -2.27871494224223
H           0.96401823618864   -0.16990805147102   -1.71630747371644
H           1.29450524319918    1.32513440596379   -1.72757857135721
O          -1.55766191782889    1.21335613537430   -2.02108025688847
H          -0.57816799659949    0.96962437909722   -2.26980420932270
H          -1.96123702747102    0.36575182865251   -1.60227018146893
H          -1.44191581196352    1.89231735928128   -1.18289118130573
N           3.27630823980846   -2.42637982446563    0.55607740625902
H           4.19510184742006   -2.14200647321914    0.24426789079744
H           2.37612566668015   -1.42374235269796    1.44844714540424
H           2.61287210494992   -2.29946847231160   -0.20545798899727
H           3.30874507714507   -3.40581596871053    0.80487603976833
