    26
        -50.46865566  Gyration_radius:  2.56868141656 Dipole_moment: 5.919
 S          -0.84433126832805    0.79251638742085    0.29115585444465
O          -0.45904554738485    1.49969585209712   -0.91681008239797
O          -1.62199110172121    1.76119872638349    1.21310558449579
O          -1.69819172032249   -0.35727881921918    0.04093499795674
O           0.35661514636089    0.36159876161868    1.04006259271347
O           1.75850287862663    2.47887071785938    1.81054971176057
H           1.31535489829029    1.65457772648599    1.51595283698367
H           1.67159542000309    2.50118790094684    2.76523097571703
O          -1.50149731209587   -2.85232176272272    0.82133968969682
H          -1.70536813283469   -1.90184466845024    0.65546740051139
H          -2.05160187815810   -3.34966694485655    0.21325042375239
O           1.33813171653588   -1.86521064841025   -2.19451060328825
H           2.00673435918950   -1.26589293499953   -2.53048955114653
H           0.46292853460443   -1.44080728877387   -2.41621231522012
O          -0.90355989182834   -0.55161906939354   -2.51407459411884
H          -0.64863274864541    0.35125519342355   -2.24599238914488
H          -1.49209198877150   -0.80204122349659   -1.78678803357275
O          -0.20275554557436    3.76871708234603    0.47997457415207
H          -1.19055010717149    2.65016559507027    1.04425341985574
H           0.62695119604960    3.55443046336922    0.95402354550962
H          -0.15645341453656    3.26942644323481   -0.35091795102181
N           1.01243175901061   -2.07263484000168    0.42849386836093
H           1.22896164677590   -2.06332903021955   -0.60712083613643
H           1.77408150086644   -2.46552326776741    0.97052680003181
H           0.80946983706744   -1.06474814760706    0.72406018105490
H           0.11431175398690   -2.59072218432251    0.59453388905411
