    26
        -50.44375212  Gyration_radius:  2.55158976119 Dipole_moment: 2.380
 S           0.95103702815661    0.76818476737866   -1.73622111218827
O          -0.30668878566905    0.12283554313641   -1.98016991807786
O           1.56764368184118    1.47774114779884   -2.79314765668830
O           0.73953438930224    1.74064353822729   -0.52349789098892
O           1.96337490805565   -0.25891035535864   -1.16807611851876
H           1.54082025714367   -0.77665771603770   -0.42760877056385
H          -0.10636938609983    1.45383487321882   -0.03830455247309
O           0.99363733675740   -1.53140649699836    0.87412125208032
H           1.66733526714146   -2.13358771825968    1.19510151259296
O          -1.37230147701186    1.07737813751526    0.74131046890451
H          -2.10727392685483    1.49445924118288    0.28906287042819
O           2.48483427922017    2.16609255395383    1.55373861858164
H           2.04205378100293    2.10954661637560    0.69172540902302
H           2.67632218700828    3.09209475186052    1.70911581523892
O           0.69716806168987    0.39701421847490    2.58714943071360
H          -0.12790149117150    0.80032977837561    2.29067368426813
H           0.89201208197468   -0.82360473558958    1.58190093290268
H           1.40682554130820    1.03434058284049    2.38060691420007
O          -1.80058759848531   -1.45410616422579    0.63312473181358
H          -0.89093053701223   -1.77468829618348    0.69863279672389
H          -1.56281560633991    0.07831987224696    0.70264368436487
H          -2.09383746143117   -1.66618844741771   -0.28810353659512
N          -2.34305401826775   -1.88053654333784   -1.97127271795690
H          -1.64237912462221   -1.17429268454572   -2.19111391652511
H          -3.21392019770071   -1.59367287029328   -2.39987423329608
H          -2.05453916995404   -2.74516359431407   -2.41151769796646
