    26
        -50.46311528  Gyration_radius:  2.47934806508 Dipole_moment: 6.181
 S           0.21846137197048    0.62762080895591   -0.51171210637696
O          -0.57897226173941   -0.04971158376326    0.51628464117828
O          -0.59490379328895    1.83554673602250   -1.02223760185268
O           1.47040553998298    1.10714922869116    0.03218843069630
O           0.44979265744860   -0.27932215101178   -1.64673794259295
O          -2.66061373722397    1.68837310107210    1.05703099682739
H          -1.87746581370351    1.11653687091581    1.05872163928975
H          -2.42830224319555    2.43746285115806    0.50382359212888
O           1.12222727192295   -1.76601700808021    1.62314388843226
H           0.34015083151579   -1.26250624099369    1.31017415366724
H           1.60402966083432   -1.12394817944207    2.18859928440646
O          -3.03450162600958   -0.68547958355815   -0.47918971594223
H          -2.15054619747801   -0.71157115228847   -0.07305673036585
H          -3.50047485835543   -0.00182048617541    0.02076394538343
O           2.36516640857442    0.44347148858205    2.43660873075072
H           2.02824092447261    1.04895729928314    3.09863722502497
H           2.07525441015175    0.80181587703302    1.56929285484916
O          -1.99302771353531    0.46128073198726   -2.61983266816094
H          -1.22522707206332    1.43261175023850   -1.71496103998372
H          -1.22211177455422   -0.10607768642181   -2.75440776360624
H          -2.55966259057650   -0.01402361494819   -1.96044751614592
N           2.46745501307078   -1.42442310115069   -0.54453621209847
H           1.67027870417134   -1.02143025375385   -1.14804686375532
H           3.09278754257120   -0.64747256791036   -0.33594764444830
H           1.96702907563950   -1.71438963154966    0.39130870497926
H           2.95453026939189   -2.19263350291180   -0.99546428230899
