    26
        -50.44787809  Gyration_radius:  2.44858111969 Dipole_moment: 2.582
 S          -0.59814108578622   -0.37246850583571    1.70211300568482
O          -1.30307919439604    0.78365070898741    1.22955530075305
O          -1.38647190287881   -1.40879225600275    2.28013684265499
O           0.24495360261071   -0.94284090944051    0.52337965307147
O           0.50979185058678    0.04528677153963    2.69037693536662
H           1.08633580358158    0.71441157494436    2.20803731573788
H          -0.26784626741973   -0.70809299064375   -0.34392706367953
O           1.88494412227524    1.73880324657816    1.30711511034438
H           1.98314030475990    2.56448569114581    1.78482676191394
O           1.32613731352180    0.35477218495475   -2.44608100826634
H           1.85854021085013    0.86116766984904   -3.06100260895068
O          -1.17915148811798   -0.43191670720314   -1.46827750653633
H          -0.79196041448340   -0.78870215601354   -2.27239482246513
H          -1.94047154463619   -1.00009696917035   -1.15878779976812
O           0.19869482053582    2.08825045817109   -0.59323374052611
H          -0.55898707713183    1.71303448919072   -0.10969094018456
H           1.25736605900442    1.93480373829485    0.53227104874762
H           0.38952294212954    1.47166105042791   -1.32633213731898
O           2.82852122847479   -0.36781405006939   -0.32053702010915
H           2.86702682542079    0.41885339261105    0.23911614985068
H           2.12396880995102   -0.90642386917461    0.06259403417398
H           1.94308387034051    0.03348540857382   -1.75143901529438
N          -2.96426911004932   -1.85237322195354   -0.14016138200576
H          -3.82982522110098   -1.33570163513229   -0.04085243084097
H          -2.47761070061548   -1.78074901972806    0.75355268982700
H          -3.20421374739955   -2.82669408484172   -0.28035737220522
