    26
        -50.45476422  Gyration_radius:  2.47345457156 Dipole_moment: 6.120
 S          -0.09800917997911    0.46775504765559    2.29138332565453
O           0.32928038222677    1.36119177557997    1.18101180666375
O          -0.24678955035220    1.14347240269653    3.53173723406559
O          -1.30710855306696   -0.26284829845995    1.85079121811623
O           1.04260520197214   -0.59076113174048    2.43448028034155
H           1.18366589017008   -1.01825884421775    1.56100581141334
H          -2.02553074143983    0.60537973204030    0.71504973669070
O           1.54547649508678   -1.81817751688791    0.13047892676457
H           2.40917104135931   -2.22910637970951    0.18457462309890
O          -1.36324474338300   -0.46918951711554   -2.03655615967675
H          -1.86537746312758   -0.86885876756487   -2.74729045346075
O           1.97511899900967    2.07245831593064   -0.76286895107479
H           1.41785278689446    1.86848529783392    0.01610054441256
H           2.83908505308705    2.30277747953521   -0.41892614130153
O           1.44842406424358   -0.28038418350937   -1.95974607246105
H           1.69265913357932    0.61476625841150   -1.64545252901008
H           1.55895626068134   -1.22912926015019   -0.68259946652187
H           0.50083874711692   -0.24489768677061   -2.16024482849854
O          -1.16991078502153   -2.10946479125012   -0.04290162248882
H          -0.23229958142099   -2.34910841688370   -0.00431902413515
H          -1.30516090733698   -1.53661482576672    0.74434417558233
H          -1.30129319457962   -1.16513051983712   -1.30905229653407
N          -1.85493914635946    1.29983707734432   -0.06993392191401
H          -1.78014516335555    0.78512829786729   -0.97194946405643
H          -0.87489417332746    1.58597860275586    0.27012569116053
H          -2.51843088253560    2.06469986213129   -0.09924245281307
