    26
        -50.45109209  Gyration_radius:  2.42429473166 Dipole_moment: 5.611
 S           1.89047443622903   -0.78261131902823    0.73537500488074
O           2.19784038723938   -0.85283648969685   -0.70091159514483
O           2.93372127094340   -1.13434622368720    1.63076100154355
O           1.57478435655094    0.77562948520598    0.98742471095708
O           0.61036522795236   -1.46169914951132    0.95590034509965
H          -0.59792866484063   -0.96035418736460    1.78749600895170
H           1.01691569067647    1.03685242309661    0.25069487575346
O          -1.44811727304673   -0.61819226784206    2.19075509866624
H          -1.64854170156207   -1.20292522725062    2.92213257875269
O          -0.61720823352199    1.90924715385620   -0.55063510328770
H          -0.89275911387186    2.74711002148743   -0.92721270475980
O           0.97727080108567    0.67715993966526   -2.65126791635296
H           0.47610527925161    1.25686410470970   -2.06510996114367
H           1.70251439022902    0.31580789970681   -2.11352362251057
O          -0.74649114895569    1.98436163807377    2.05716267289272
H          -0.72477798825755    2.01462250180085    0.43981509427104
H          -1.13323147883984    1.10489818379994    2.24326117612185
H           0.19253486258091    1.89479877611864    2.25549980691419
O          -2.03065680226787   -0.48472935728016   -0.49900390560028
H          -2.02417859562128   -0.64033914199443    0.46147070214790
H          -1.68863635639804    0.41856368629909   -0.61009459315266
H          -0.85675736975519   -1.32572233083020   -1.18874407996616
N          -0.02012825432723   -1.63353979474354   -1.77286818129144
H           0.11535707058304   -0.93551048430992   -2.52968951862348
H          -0.12844093334456   -2.57955703662647   -2.12069863849334
H           0.86997012128486   -1.52355282365583   -1.18798925661859
