    26
        -50.45577744  Gyration_radius:  2.44041949794 Dipole_moment: 4.632
 S           0.63331422594645    0.94371539405781    1.69576688972768
O           0.74738577505682    1.58903250057898    0.29811661950313
O           0.10462522729915    1.93062995998962    2.57388141002425
O          -0.40958803183515   -0.19019259571930    1.49771247060341
O           1.87349626471807    0.30322477505652    2.03331560557168
H           2.21974709910524   -1.03257978114115    1.16235460378897
H          -1.31070367568625    0.33444853450705    1.44851575266658
O           2.40913772347779   -1.75728690882493    0.51660513100213
H           3.28624199315725   -2.07947458549412    0.73115277334074
O          -0.72565897106493   -1.10933101983528   -2.03998572674510
H          -0.88578116276576   -1.68053849248995   -2.79259978643564
O          -2.32447638389628    1.37349043588918    1.32517979619561
H          -2.24065788650192    1.57200024967766    0.34311038746756
H          -1.82239003055792    2.04385854334088    1.80757159206960
O           1.65739608440465   -0.01567993978145   -1.42043732501072
H           0.81882306355942   -0.37740677237344   -1.78028662434030
H           1.17593522620908    0.96454038186811   -0.40476678561748
H           2.04676094051895   -0.72262087710446   -0.87005766633672
O          -0.21952390754035   -2.56678765372172    0.10706490783605
H          -0.51886036113352   -1.93806935425447    0.77831139122135
H          -0.64565112349743   -1.70619033753881   -1.25141974456548
H           0.74637903753309   -2.56721075188669    0.19438679713000
N          -1.78047942728412    1.67105496545997   -1.24767025095603
H          -1.59128528776417    0.72861982783328   -1.57702815544018
H          -0.88995003764755    2.15192236071122   -1.18999831120039
H          -2.35423639378037    2.13683113116560   -1.93879575157469
