    26
        -50.45627835  Gyration_radius:  2.76716350007 Dipole_moment: 7.584
 S           0.63529799535305    0.13968147691610   -0.63602423366796
O           1.66589045230501    0.88040395491655    0.07802700848215
O          -0.66672979139713    1.01125277159811   -0.44294435334284
O           0.86765283842663   -0.00580719630907   -2.05235185297935
O           0.34998172218247   -1.14149662003472    0.02746874342317
O          -0.71686727400990    0.97907897562346   -3.94412544337854
H          -0.04421312752339    0.60335903641290   -3.33681094154261
H          -0.47400812735015    1.89727767039449   -4.06966501368830
O          -0.97468964783940   -2.20050001885411   -2.02328935639217
H          -0.36140968554606   -1.98712412264537   -2.73259198376425
H          -0.49460797114487   -1.96447967648933   -1.20507787295611
O          -1.43777611722512    1.57529804817516    2.10902827258303
H          -1.69643244083463    2.49437321141223    2.18798296598741
H          -1.28339302110359    1.41349552805990    1.15783095730458
O           2.63767712923494   -1.12842123851781    4.00090126566162
H           3.51081927199838   -0.83521360680832    3.73012872511029
H           2.64958701892912   -2.08799035881389    4.01890178676180
O          -2.37865586694450    0.06324925565163   -2.03059446723604
H          -1.41163264840285    0.64279700238445   -1.06182451948500
H          -2.03035496161320    0.43984555602314   -2.86417302206536
H          -2.08485446338388   -0.87807602687523   -2.04189423882485
N           0.74841995920131    0.01621726919170    2.28606240742343
H           0.41886181801610   -0.74133394409239    1.63728304429019
H          -0.06138396384777    0.58177539824000    2.59033945165406
H           1.33011698605448   -0.34150502491693    3.05516188671898
H           1.30270389645710    0.57384265934790    1.56225076391820
