    26
        -50.45877756  Gyration_radius:  2.39786104672 Dipole_moment: 7.461
 S          -0.66698870573489    1.75124583566968    1.19057845955916
O           0.59865989739533    2.02989848478225    0.29786308722758
O          -1.58813660588650    2.83381833904528    1.11767447535665
O          -1.24103835124638    0.48660075869586    0.66565586479544
O          -0.06306810760258    1.48360847678473    2.49929766433277
H           0.90874002312790    0.54420103138357    2.05041656861540
H          -1.75843222303105    0.28094701441072   -0.82120221471518
O          -1.95684451815737    0.07791850468401   -1.77418545292254
H          -2.83450661099790    0.42229631039225   -1.94305676025855
O           1.84649776001184   -0.54137771101630   -1.09084724010919
H           2.58604075541449   -0.96581678697060   -1.52705519876359
O          -0.66186075265820   -1.86867796349769    1.48627346008617
H          -0.96337566811764   -0.95627921863259    1.20344933540853
H          -1.27833696034568   -2.15223013050218    2.16214863714155
O           0.30781332606286    1.53033309570912   -2.23222636311415
H           0.98785184620249    0.85671465018895   -2.08079360240171
H          -0.53828466148774    1.04762812757458   -2.27445548088828
H           0.39383765922645    2.01494915906892   -0.67499441820870
O          -0.26346656109057   -2.07563386196706   -1.27998047222200
H          -0.94476316668219   -1.46984451337520   -1.61347001816052
H           1.06559186990384   -1.15506488457676   -1.19842202733153
H          -0.48488593349067   -2.23291391565773   -0.34937749747330
N           1.52570603707365   -0.29151793998950    1.64909190210643
H           2.38761664381307   -0.39691167008526    2.17356114970532
H           1.71917366198506   -0.12555343835617    0.64183752825699
H           0.91645933632493   -1.12833776376583    1.72221863398088
