    26
        -50.44364337  Gyration_radius:  2.49281889177 Dipole_moment: 5.410
 S          -0.42908228663659    0.91827764432503    2.09876474933458
O           0.75430499206314    1.60281699902334    1.65924763051133
O          -1.08906050380676    1.37855703811209    3.26306328378589
O          -1.43278776889186    0.88710388588033    0.88957498096840
O          -0.11226205676749   -0.59130585238315    2.24810013956447
H           0.70013644407952   -0.81631731414644    1.69559382597939
H          -1.24764323775364    1.67763731443403    0.30089175179388
O           2.00475519237128   -1.17730462775895    0.89251438007113
H           2.73881729333616   -1.07749774166870    1.50197375188630
O           0.01396816025318    0.79408132783489   -2.40629902277704
H           0.09707097451175    0.60750113313207   -3.34184355422734
O          -1.02680660148677    2.72914743573415   -0.86112610040508
H          -0.58181716140273    2.16213422383115   -1.52585987568746
H          -1.86646310006589    2.99848366525892   -1.23947971646526
O           2.08698548454406    0.94363702425522   -0.57766560168888
H           1.42769492870917    0.92944753709391   -1.29139077344404
H           1.68777373519175    1.44746822002913    0.15544592997263
H           2.09300975667975   -0.41500250767696    0.24199075699485
O          -1.58516108703270   -0.90626055748356   -1.26917025742316
H          -1.12429975109774   -1.70444806931573   -0.90751296507708
H          -1.82769863579094   -0.39232077084981   -0.48762721442865
H          -0.58462481884243    0.08656470998591   -2.02299693938243
N          -0.31196123469416   -2.87569884776634    0.05648779398106
H          -0.33110402814809   -3.86098573502038   -0.17400112778070
H          -0.71156951246741   -2.76108497107797    0.98098165730309
H           0.65782479315324   -2.58463118384394    0.12034248670160
