    26
        -50.45689316  Gyration_radius:  2.42809393021 Dipole_moment: 6.671
 S           0.09384144398469    0.88311805954801    1.91111529709852
O          -1.18488309207659    0.94724509819949    1.16914498658458
O          -0.06692494436820    0.35996833738582    3.23592826552572
O           0.95591055682728   -0.17460489169947    1.07777896491917
O           0.83773986580764    2.11787966583335    1.76049004501795
H           0.53698244127200    2.58429029760460    0.25262840553729
H           0.50141210567075   -1.02454558641661    1.24875480420809
O          -0.77750329549427   -1.92252606120770    2.06831012584286
H          -0.63245617928953   -1.25814460815936    2.76973522835832
O           0.36426150211313    0.74719412707592   -2.44373497175288
H           0.60511113236443    0.83360451035446   -3.36674442334349
O           0.15287572793593   -2.77216544394197   -0.59552041616739
H           0.06305891014528   -3.04805929868202    0.32038134549083
H          -0.59417720461693   -2.16000037870005   -0.76077740744772
O           1.98035033513472   -0.93857576737977   -1.34108217813910
H           2.04502852354948   -0.56619774911526   -0.45148883320220
H           1.44254633154420   -1.75077599473737   -1.21526239615080
H           1.01774177310802    0.08548319329063   -2.04991255316659
O          -1.59399408010660   -0.72449089725747   -0.90503313396725
H          -1.53287869291845   -0.16607337773087   -0.10755832044150
H          -1.11984802850844   -0.24812657851986   -1.59868678729972
H          -1.65419424294238   -1.74620792370740    1.71458894871017
N          -0.17559615993071    2.54288264572862   -0.53444375520069
H           0.14489966312113    1.96760864473620   -1.35030300277666
H          -0.51147412940083    3.45846919864578   -0.81284101253258
H          -0.89783026287656    1.97275076883533    0.00453277426462
