    26
        -50.45689313  Gyration_radius:  2.42822460489 Dipole_moment: 6.665
 S           1.15387007291417    1.10162739979752    1.37792301034830
O           1.85596470270964    0.37466094377099    0.29673922690225
O           1.53323566605790    2.48229979801495    1.44576193732745
O          -0.38002777004763    1.04592544284142    0.92943931883882
O           1.17366863170405    0.33640336450393    2.60845369720204
H           1.03614265124485   -1.19438931711240    2.13003414426213
H          -0.41114680429019    1.63446828983704    0.14781873902980
O          -0.86296175829400   -2.42211343331228   -0.22873457978787
H          -1.36899323946850   -3.22184123596907   -0.37631875794967
O           0.41256082758748    2.73937751028935   -0.95299461190916
H           0.93052069168503    2.96047089096985   -0.15465091208768
O          -1.79541090696398    1.05067204916929   -1.93234877626171
H          -1.50623706834568    1.95907693847028   -1.81286262075219
H          -0.97853832994075    0.53195358565689   -2.08682987340800
O           0.46621099096099   -0.43964375369210   -1.86391226695955
H           0.07917559068605   -1.25303638558399   -1.51544287783294
H           1.02358768055618    2.29894852093322   -1.55087332495651
H           1.02954737612607   -0.08485037232514   -1.15083568900682
O          -2.51805412119690   -0.47897481368959    0.16383670743295
H          -2.01639969643413    0.05654377281839    0.79298854329885
H          -2.48481185683887    0.04478234162352   -0.66644912533167
H          -1.54276538328930   -1.69064907914010   -0.07760370069286
N           1.23849513494758   -1.86424848012517    1.33119965376505
H           1.70320169924195   -1.14100383036327    0.69935485553247
H           0.37208825689118   -2.20402804237356    0.84834332581311
H           1.85707698176271   -2.62243210496779    1.59796397720877
