    26
        -50.44604372  Gyration_radius:  2.49165147716 Dipole_moment: 5.651
 S          -0.87480503423545    0.33756051164440    1.91006645637544
O          -1.68658580320614    0.21948629407748    0.71394437549603
O          -1.37903984539034   -0.34802560360035    3.04701706765448
O           0.55527695193110   -0.19855988702411    1.55543163138057
O          -0.57981934770439    1.79877333071816    2.19009228060284
H          -0.09494547509649    2.12758517432311    1.32504826499246
H           0.49454116353476   -1.16993799832332    1.37496060498520
O           0.17258012148413   -2.67968648512277    0.81856170421026
H          -0.55565879020203   -3.00872327261783    1.34888895018292
O           1.60444613698133    0.18254957727918   -1.27091981086999
H           2.25832547078426    0.56737062510309   -1.85732322685125
O           0.48975359443466    2.39503486638725    0.00621903735382
H           0.92923440142247    1.57798741962875   -0.29246982384450
H          -0.31874193972723    2.48317503969971   -0.56442427612130
O           2.69178168416423   -2.07622181821402   -0.24435305792753
H           2.82430507942604   -2.74338736951711   -0.92110522147278
H           2.05977676166920   -0.53222066499079   -0.77647041702579
H           1.99110163254897   -2.40963445849577    0.33278420332607
O          -0.73993412044346   -1.34213459918856   -1.21079531809832
H          -0.22063820561694   -2.33196208691309   -0.03672977558788
H          -1.25035747075784   -0.76754985774696   -0.60542382550545
H           0.02748390636200   -0.80420922262127   -1.46099929801042
N          -1.84512445564255    2.27075182645413   -1.30421771282540
H          -2.09288635185454    1.53860817744684   -0.64059631313365
H          -1.94602875828843    1.89069570121691   -2.23691226293769
H          -2.51404131638327    3.02267480041786   -1.20027422650399
