    26
        -50.44707823  Gyration_radius:  2.51033386424 Dipole_moment: 4.740
 S           1.16926893283329    0.79065680276552   -1.98785270018123
O           1.73923199481105   -0.37784247892729   -1.36398268693067
O           1.96195683423576    1.48065575857611   -2.93275368983244
O          -0.18152836347866    0.40911872158893   -2.64677982765658
O           0.71097931124955    1.74355279815496   -0.83461756970652
H           1.02534617010486    1.30550442524487    0.03054694182138
H          -0.81925821096692    0.13160307256914   -1.93636237388649
O           1.50694736525661    0.44268073116955    1.19107814068862
H           2.14968792328920   -0.03620513887592    0.65503576470713
O          -1.91509409994319   -0.10719838298095   -0.77014418905827
H          -2.77851349312587   -0.26943697126805   -1.15437550111755
O          -0.86242355087882    1.30507631003063    2.66267018590211
H           0.08494562372795    1.47131682771809    2.66403313260145
H          -0.96186971423328    0.34946682444743    2.56170659536694
O          -1.81163394587419    2.22540820023283    0.31188026624576
H          -1.57432244244358    2.02313985417030    1.24411804794677
H          -1.00315223614481    2.54562682400435   -0.10649006335974
H          -1.95599449244839    0.81617152839379   -0.35805700961878
O          -0.52292276511458   -1.22783954269920    1.34515488123106
H          -1.12130142371744   -0.92796556718815    0.64188025174196
H          -0.03625053549458   -1.98860608451756    0.93905375474317
H           0.75622336266498   -0.20281624742469    1.32139518965864
N           0.94230989489337   -2.88847336475384   -0.16425321173154
H           1.30469425638992   -2.10985526339731   -0.71502790172913
H           0.45559999001445   -3.50693103409077   -0.80128858380020
H           1.73707360441016   -3.39680859308874    0.20343217592270
