    26
        -50.44707821  Gyration_radius:  2.51029572082 Dipole_moment: 4.739
 S           0.75786512129097   -1.73948659878245   -1.53068308280806
O           0.03699512480618   -2.21069048625451   -0.37406085292423
O           1.49172834500544   -2.68950500012042   -2.27647167022371
O          -0.22452774920095   -1.00471749877555   -2.47901347599550
O           1.67881238032024   -0.57062954874239   -1.04712523679076
H           1.57220917657156   -0.53254582565756   -0.03406374343185
H          -0.57249561367404   -0.19554818566883   -2.01779273520127
O          -0.96635530691234    1.22621622212660   -1.35396972486101
H          -1.51286439086731    1.73387674313390   -1.95652110047201
O           1.20219056744054   -0.59913199755540    1.44320387937291
H           0.90270772067065   -1.51442824329823    1.39540649302907
O           1.38900680395833    2.31360299454601    1.50145816290331
H           1.89428239913701    1.55415231095241    1.80661655007376
H           0.46622043679794    2.11565020647427    1.70747760018210
O          -1.03995791539205    0.78035826727772    1.37803176813917
H           0.36226408207643   -0.06107186488537    1.49146968385901
H          -1.13190548551753    1.02528928506869    0.44307493429362
H          -1.62796871401656   -0.00992271520799    1.47893055234171
O           1.40026761486480    2.22418204015922   -1.19401513764549
H           1.49115154724248    2.41691970935838   -0.23437597561925
H           1.90979122372583    1.42060824422829   -1.35479785976127
H          -0.06335020192960    1.68266465523950   -1.33580727129499
N          -2.29702919534859   -1.58110503885528    1.21756287167045
H          -1.56543322357091   -1.95869639783258    0.61492874075845
H          -3.16564569479706   -1.62324583048538    0.69889535717505
H          -2.38795905275374   -2.20279542639753    2.01164127325015
