    26
        -50.44707825  Gyration_radius:  2.51040071708 Dipole_moment: 4.739
 S           0.92284242147447   -1.03076965810465   -2.00757145072027
O           0.18867358097370    0.19100566634500   -2.22590250125813
O           1.20259431084491   -1.83666322912767   -3.13434597983865
O           2.25244024866983   -0.70329299371108   -1.28008626194558
O           0.14569357465101   -1.83924106187370   -0.91648980088102
H          -0.70675966134913   -1.31140414023029   -0.73282206297354
H           2.04486178183230   -0.33610525236345   -0.37978413258159
O          -1.86092642053998   -0.33108731724855   -0.55733707448572
H          -1.73713629212574    0.07277181492838   -1.42412541987846
O           1.71348948832809    0.05229289243811    1.15555155753762
H           2.52616631674810    0.18460844899382    1.64701707145551
O          -1.82671886921598   -0.97988833157790    2.28852418132187
H          -1.60706982341967   -0.04033181989864    2.24099741277492
H          -2.37064769934793   -1.16120447143855    1.51625261607157
O          -0.71466668696134    1.38129081708609    1.08228264641577
H          -1.49498532323692    0.33801853597183    0.08736825658099
H           0.17458377238234    1.01429273880212    1.21334149204744
H          -0.58702353829121    2.08249045049886    0.39481805518351
O           0.56561797186502   -2.14440042082906    1.84778243559378
H          -0.31934549867147   -1.84181517832191    2.15045688382280
H           0.43289619245056   -2.52379384849395    0.97047676017497
H           1.31817009280771   -0.81773208014263    1.48863239703231
N          -0.14842124439266    2.83482579068349   -1.09703989223791
H          -0.85412253092637    3.36583126560474   -1.59229744170006
H           0.03983914533626    1.99282431154949   -1.64156634818896
H           0.69995471004119    3.38747708039594   -1.09413339929235
