    26
        -50.44707817  Gyration_radius:  2.51038848675 Dipole_moment: 4.741
 S          -2.37089040326614   -0.56711347517789    0.04900647569934
O          -1.86037498384912   -0.17196331234364   -1.24043481787621
O          -3.77387533861082   -0.59585449345730    0.21681241811465
O          -1.79050370140763   -1.95548190229343    0.42320757833274
O          -1.69614100306744    0.36427603994308    1.10968545780688
H          -1.15284771532620    1.04413816221134    0.57856569259349
H          -0.80480353390561   -1.87515398090213    0.52561723534436
O           0.75840296207280   -1.69764163119931    0.90289971064639
H           1.12178836480909   -2.52931932557989    1.21226668052745
O          -0.35340021878922    1.89650846649716   -0.39959218206000
H          -0.92707148284993    1.69426758574578   -1.14775452677517
O           1.78777047532201    1.95805258459199    1.58328604988814
H           2.16448097808761    1.50179982850607    0.81963859232653
H           1.11694387653890    2.55015437010042    1.23028479316869
O           0.48001744142771   -0.03392570881409    2.84631697031572
H          -0.43934693106587    0.21693513911823    2.69446762864222
H           0.68967249825304   -1.09748442083462    1.71480203665806
H           1.02292856689978    0.73262619135218    2.55658092253540
O           1.70794023694078    0.29900831769693   -0.76390417930149
H           0.46828912678391    1.35125680131544   -0.55734899829570
H           1.50761090968003   -0.46631156005594   -0.20104533632169
H           1.43112416836091    0.01079633264307   -1.66990217833401
N           0.43567501593676   -0.56878508278052   -2.95736062196411
H           0.57259202766846   -1.53188222409252   -3.23819353723523
H           0.37180339771415   -0.01328461625919   -3.80153320460971
H          -0.46778476406709   -0.51561809592636   -2.48636864977966
