    26
        -50.44707818  Gyration_radius:  2.51043556026 Dipole_moment: 4.741
 S          -1.71688804964765    1.02410424715223    1.39600645424839
O          -0.55813150700772    0.53884458777590    2.10400468978286
O          -2.86848248774589    1.32885857056995    2.15652121343649
O          -1.31985291778248    2.26969871524103    0.56230730595078
O          -2.04014049963429   -0.02447096973839    0.28079279031192
H          -1.39153524785299   -0.79704426571277    0.42801887321953
H          -0.66235137799605    1.99618499401249   -0.13147598476051
O          -0.28726857863583   -1.78859683790385    0.77503876177324
H          -0.19993709848113   -1.47512740061076    1.68272552603965
O           0.23318794708272    1.51284328985792   -1.38930457931987
H           0.42735314014695    2.25594188994514   -1.96336670915767
O           0.01606239234828   -2.27600333441360   -2.08756057929383
H          -0.34403964958483   -2.72335934423040   -1.31595064145413
H           0.86027586381028   -1.90128773057134   -1.80455502721543
O           1.72533752692424   -0.62889876111609   -0.46536732088309
H           0.50945740930193   -1.41623328985559    0.30187324447156
H           1.32483832600385    0.15983245281374   -0.86550536117716
H           2.14951212694602   -0.28998899883201    0.36273637163015
O          -1.48276780932317   -0.06758506962304   -2.47578466868416
H          -0.43405165179225    0.93635608166959   -1.88577143058429
H          -1.00363469215301   -0.92550326096859   -2.50124063448556
H          -2.10770268701672   -0.13190094008908   -1.74332763575490
N           2.32836621844890    0.47759663095449    1.89988449600911
H           2.74578293720921   -0.05245565827864    2.65492780344856
H           1.34066605348897    0.60279474995426    2.12277173810166
H           2.75594432291260    1.39539962200949    1.90160129434656
