    26
        -50.46584905  Gyration_radius:  2.55155293438 Dipole_moment: 7.048
 S           0.36243838220170   -0.80780451418020   -0.43331178956098
O          -0.12734017533844   -1.44579751735715   -1.62985989274826
O           0.87352549104608   -1.74227365964616    0.56664128088716
O           1.33343907231505    0.25056200055981   -0.70923037148923
O          -0.85227520575064   -0.11794413281244    0.28850764539260
O          -2.63034088147154   -1.31723283957367   -2.48807662114884
H          -3.11777186588611   -2.05387756560255   -2.11793166751847
H          -1.69077283195512   -1.46188866125975   -2.24374944784040
O           2.68079167497300    1.50367900869358    1.12558124586574
H           3.58013389214948    1.56521570352709    0.80002370322565
H           2.14935912154494    1.13360126977830    0.37557333510807
O          -1.00828613461879    0.48778946415645    2.92356022262626
H          -1.06054748352345    0.39797405738372    1.95198262605906
H          -1.78083137596706    0.04388300858162    3.27688184840283
O           0.17991176641894    1.04568635198775   -2.95819503533626
H           0.73071738270180    0.84259167893084   -2.17637731324136
H           0.05444015547218    0.19821487885447   -3.39479427645643
O          -2.05104740714139    1.13118139153180   -1.52543277953606
H          -2.52175863922292    0.38398275699792   -1.94512930308164
H          -1.35911513902547    0.43905157879410   -0.42663650908907
H          -1.29705502788519    1.32348296126783   -2.13355877481185
N           1.52635469696698   -0.36264991233748    2.60939909392719
H           2.03929035865472   -0.85650620965527    3.33121404028776
H           0.61805466190104    0.00484922431642    2.96268555810822
H           2.08501383999944    0.42921136800921    2.20151975961560
H           1.28367166143863   -1.01498169094859    1.76871343235323
