    26
        -50.44472003  Gyration_radius:  2.54907584566 Dipole_moment: 6.700
 S          -1.98993349342005   -1.33917625562130    0.84466433827157
O          -1.38371051762243   -0.44665791738049    1.80425349660001
O          -3.27442032260164   -1.84530349143374    1.14854661553350
O          -1.97663931913869   -0.61321791668405   -0.53791745063504
O          -1.02789869478255   -2.52873337994424    0.58911824969645
H          -0.18459314993457   -2.16400260408857    0.21160603144859
H          -1.70994109796567    0.36112255810283   -0.35564946661188
O          -1.18181481274173    1.66425141930858    0.18393018306443
H          -1.33299212803781    1.38563945494644    1.09797327515597
O           1.09035843950085   -1.58238161855850   -0.60355411745302
H           1.68781552287152   -2.30228616163710   -0.81405749843831
O           0.90911009749534    1.68877814776033   -2.56407168329040
H           1.18593617853151    1.67623256922713   -1.63416097905078
H           1.63495533219071    2.05852836982866   -3.06773962987391
O          -0.17337982826647   -0.79159194709081   -2.70285307191229
H           0.63488730052643   -1.32687057057144   -1.47026569781329
H          -1.05914827483321   -0.74002988821430   -2.32212792693586
H           0.13553723831908    0.13189304348935   -2.80496482676274
O           1.44877427357935    1.09056239214143    0.09223987884840
H           1.47107526284274    1.11512765945666    1.08170282200363
H           1.44394940199291    0.14279216699638   -0.11751050164108
H          -0.20662152571714    1.59918780908910    0.05402913894866
N           1.07677844714342    0.77683802051712    2.73119809721981
H           1.70991019295836    0.17060601051373    3.23788599751945
H           0.21147307282672    0.25742957269089    2.58373542823141
H           0.86053240426003    1.56126258713845    3.33398928786031
