    26
        -50.45859677  Gyration_radius:  2.45206779191 Dipole_moment: 8.072
 S          -0.86543753218915   -0.56725163619972    1.75483417763055
O          -1.50998085865536   -1.22615973200966    0.62137934967505
O          -0.06700909483599   -1.44516122458482    2.56189746014292
O           0.13445388107896    0.49856716135029    1.09019968364877
O          -1.80090626984340    0.28763258574420    2.48108491126634
H          -1.95341898211122    1.43828937682987    1.62350576817670
H           0.94468364510662   -0.02949313147741    0.92276284027988
O           1.96439551017132   -1.39263404518384    0.84599605531703
H           1.49290462737594   -1.64103648637604    1.66201701514876
O           0.63878852274547    0.26478301269829   -2.29924894000228
H           0.83404514238660    0.50222628389438   -3.20672760523572
O          -1.86382617639816    0.63125727826935   -1.17462496795544
H          -1.86349069316387   -0.15611918703150   -0.57598412241459
H          -0.99507071965433    0.60165670769286   -1.61315771349123
O           2.97960406465993    0.36300662675076   -0.96906826987792
H           3.72228322096333   -0.05732279380478   -1.40691406697984
H           1.46677499233579    0.40003388615590   -1.78567325500352
H           2.77359822504479   -0.19684309509837   -0.19902202222977
O           0.32473457502334   -2.25858768363590   -1.02458183069880
H           1.49135277720768   -1.88798571250208    0.12876119808322
H          -0.44285308276755   -2.08147369007913   -0.44516003368558
H           0.34033846852897   -1.52492265424149   -1.65592695877943
N          -1.95316030467840    2.22788316517174    0.85513077717244
H          -1.09089888963365    2.75465794520669    0.95625374205081
H          -2.76888081359306    2.82650901141994    0.93056926296265
H          -1.93302420509689    1.66848803108140   -0.07830245504877
