    26
        -50.44628208  Gyration_radius:  2.70869459158 Dipole_moment: 9.434
 S           0.38734096446086    2.69680551836277    1.28776156516402
O           0.62881652294557    2.79188274663512   -0.22483187083124
O          -0.14568104345011    3.91681442811380    1.76779498964711
O          -0.68054293159399    1.54732987882432    1.41227132833287
O           1.55674606125256    2.17427144957094    1.94784460373646
H           2.03264956950809    0.66156838560690    1.69742080351972
H          -1.35641332681082    1.62886757242196    0.67718422606198
O          -0.88577311887176   -0.86205832767958   -0.96461004218454
H          -0.87549394638158   -1.69753755787676   -1.48040653760145
O           2.30053685421882   -0.25230609515296    1.41696662418415
H           3.19782035762943   -0.37009524033825    1.73189949088672
O          -2.34291068235955    1.33739111209940   -0.53654538715346
H          -3.20509496635877    1.05051478268346   -0.22870131407484
H          -1.88178360504306    0.53941434655399   -0.87616163833869
O           1.41163861840654    0.52341971110089   -1.03889187161980
H           0.99043277031416    1.90857726189445   -0.59834523040710
H           1.85201835000573    0.13723241299567   -0.25878355330367
H           0.56767127656945    0.02918766963944   -1.14574642363386
O          -0.27718694391332   -1.21352017344520    1.60564023656267
H           0.69079777787941   -1.14162474767549    1.61840170522540
H          -0.58343813738195   -0.33902975662578    1.88128222377984
H          -0.73419618975995   -1.11626065868151   -0.02298907140343
N          -0.70137927251284   -3.25014499117264   -2.29306670742837
H          -0.52449009878239   -3.98441087036279   -1.61845852133019
H           0.09205961570120   -3.20375139000007   -2.92043325962115
H          -1.51414448564560   -3.51253747749244   -2.83649638816352
