    26
        -50.45859673  Gyration_radius:  2.45201534961 Dipole_moment: 8.071
 S          -1.43647736979239   -1.44424802429460   -0.01155013718583
O          -1.79115321284810   -0.35260753263682   -0.91531838990224
O          -1.06302468416438   -2.65718955902242   -0.68154779643076
O          -0.13543785837601   -0.91914640559235    0.76888555348914
O          -2.41340472736850   -1.58835266625164    1.06473013065707
H          -2.12390574471354   -0.48098523262525    1.94345110354662
H           0.60025996237614   -1.16475750928126    0.16743186794702
O           1.38224221359540   -1.76249290917947   -1.22372339077528
H           0.65150126466502   -2.40726174375320   -1.21000961090211
O           1.34603812293322    1.94436252919082   -0.41516542757269
H           1.84387553601830    2.76217835400182   -0.45078142790940
O          -1.29862960239356    1.84651626279110    0.39712819360927
H          -1.59804684505963    1.11272550084695   -0.19469944322204
H          -0.35151824149291    1.94805945567879    0.19578386389958
O           3.15228229842208   -0.02939548595582   -0.09633324726137
H           1.98632575660124    1.23125893717923   -0.19383060891935
H           2.63969988889726   -0.79575969018959   -0.41064760338972
H           3.92394379358119    0.02005724913631   -0.66388096568465
O           0.28818883477760    0.28488932979974   -2.46815205764766
H          -0.58563198250546    0.05658101271994   -2.09325989586139
H           0.60473552778944    1.03016910090262   -1.93757849387457
H           1.08519228541589   -1.06853229484716   -1.86696230122941
N          -1.77139552330844    0.40782187474767    2.49099367530744
H          -1.54780508467075    1.11811223046051    1.69721838966633
H          -0.91436129741322    0.15240752433429    2.97214489844489
H          -2.47349329087873    0.75558969180092    3.13567311117580
