    26
        -50.44394641  Gyration_radius:  2.49355548425 Dipole_moment: 6.144
 S           0.70438279628787   -1.26034988113093    1.67410702990225
O          -0.19904110889352   -1.93282923014394    0.76746251460502
O           1.88762385661174   -1.96508303503172    2.01780866980415
O           1.08186108886921    0.11246537554794    1.00138564752672
O          -0.05343354529740   -0.77498204123421    2.89754466642382
H          -0.87652952782606   -0.21848838989347    2.50446876746756
H           1.55992418973600   -0.07195447356251    0.15434623500417
O          -1.23838060421455    1.80986148063289   -0.74478026184383
H          -1.79890815427193    2.28456625628756   -1.36070247983278
O           2.31126074142417   -0.09761516236653   -1.30892700141056
H           3.26810600598905   -0.09552253632296   -1.24539144246701
O           0.45345700219624   -2.12157529488635   -2.04540042028783
H           1.18411667153258   -1.49328534258477   -1.99056321066065
H           0.34626721315689   -2.47151101505819   -1.15171867745640
O           1.37604134612001    2.34373934827367   -1.11748376597388
H           2.02107172773341    0.84229089404275   -1.44808904459309
H           0.41368331525860    2.16836322763191   -1.02050102237097
H           1.67452175419764    2.57905284266463   -0.23636503856226
O          -1.68455400184440   -0.73393217010229   -1.09090616524986
H          -1.28245407964891   -1.17498370126641   -0.31527201759399
H          -1.38190610047536    0.83931443365618   -0.93614991828390
H          -1.17949085943116   -1.12315765837877   -1.82573861565886
N          -1.95815871496142    0.51626701733124    1.83869862608700
H          -2.54017128081952   -0.15420443755061    1.35130473409504
H          -1.55931218750821    1.14790337642444    1.14714788992630
H          -2.52997753398042    1.04565011699351    2.48371431142845
