    26
        -50.46439127  Gyration_radius:  2.3956868314 Dipole_moment: 3.884
 S           0.03594336262751   -0.23452504298482    1.78784381698074
O           1.15941863451898    0.26585511615568    0.99717585152465
O          -0.18214339011795    0.55824838647845    2.97451521989360
O          -1.19070939484308   -0.27651829576002    0.96253783095646
O           0.35632753748299   -1.70319740405936    2.17863725092680
H           0.44006811903746   -2.18812052386014    1.31676905228413
H          -1.69547795627767    1.23680186604584    1.06945853369630
O           0.70592092041856   -2.85675597962868   -0.17434727404735
H           1.27549698592541   -3.61814867097578   -0.05025485027607
O           0.07142109041086    0.65241782399020   -2.47352600767203
H          -0.17461364914405    0.78369198463802   -3.38963015930670
O           0.48437535746480    2.40734207698339   -0.37556120387101
H           0.94048265428870    1.70938178151316    0.14644768089384
H           0.28236338240679    1.95845914876919   -1.21698557927032
O           2.06145324258669   -0.88404408018397   -1.19717888718686
H           1.54744933620131   -0.36772036808796   -1.83734979947266
H           1.93254988667044   -0.40715904026820   -0.35122679489628
H           1.26541308224814   -2.16110773232623   -0.63158241282584
O          -1.34610119844810   -1.31651586405022   -1.45172853115448
H          -0.51543475651492   -0.07171988619711   -2.12631125997370
H          -0.82427676657956   -2.11889290573493   -1.33846669583370
H          -1.40929435576338   -0.94882077887909   -0.54412933387443
N          -1.42030303346371    2.21849627281975    1.36504051522499
H          -0.69837561996486    2.51600260849135    0.61685732474745
H          -0.91137612472417    1.98139399390686    2.24578353076067
H          -2.19057736670620    2.86515550324613    1.49721219169657
