    26
        -50.45849008  Gyration_radius:  2.40829697585 Dipole_moment: 4.150
 S           1.53688780339860   -0.74735161208594    0.09345274155042
O           1.25593941475559    0.66533037391697    0.49176105994979
O           2.27604869529718   -1.43575803862440    1.11011468325012
O           0.24392078714729   -1.38651736389089   -0.20244320661102
O           2.34814526617479   -0.69153471788297   -1.20664657058847
H           1.68988148811933   -0.45401332298732   -1.96655087734887
H          -0.12169351769515   -2.05081561641000    1.33071770895784
O          -2.43043233470800    0.79967820384283    1.66514689759186
H          -3.04530330755472    0.13076105481853    1.97190527774244
O           0.00286084370908   -2.10232587278667    2.30548475614522
H           0.95688599206826   -2.26176965694687    2.37541038477728
O           0.07101007875735    2.21311056019066   -1.26664382413306
H           0.06484114298784    3.11256918229384   -0.93579641227817
H           0.60659852458478    1.68850903019092   -0.62449282768126
O          -1.76478612138637    0.23263758741467   -0.76794838000115
H          -1.28931201077997    1.02988961310374   -1.05951042505160
H          -1.06202668188697   -0.43539247071544   -0.59930493364104
H          -2.27123317730853    0.61288780039341    0.68930959158699
O          -0.09545266724189    0.40887508790819    2.55463825130038
H          -0.07617821665452   -0.63238504227342    2.61244845836350
H           0.53122006748351    0.61292005102361    1.72403521755669
H          -1.06377098461265    0.65022852191651    2.25600337688930
N           0.60655480782566   -0.06625066263304   -2.99177506590981
H           0.86609532704167   -0.13426488053051   -3.96622155208700
H           0.36231364060163    0.89483501692893   -2.77467573636184
H          -0.19901486012045   -0.65385280617671   -2.81841858396503
