    26
        -50.45260124  Gyration_radius:  2.4976137293 Dipole_moment: 5.350
 S          -2.26384448264527   -0.24405466732312   -0.34393423325365
O          -1.55318243491190    0.00901055417214   -1.62304385913482
O          -3.51199256433118   -0.90253212242502   -0.51817603293432
O          -1.33470909714559   -0.97310043653291    0.55255573493516
O          -2.50922783827448    1.14919551386099    0.31673219540960
H          -1.63727335194407    1.57686406655260    0.46903539763873
H          -0.62905722457057   -1.97662301387028   -0.43139991242396
O          -0.18287417147478    2.42130190839671    0.61428028764650
H          -0.34135775462557    3.34531234484291    0.41292082512638
O           2.16406382829280   -1.04042031173446   -0.83121741772189
H           3.10318005047076   -1.22474985534373   -0.80516460827949
O           1.17311098533452    1.41994869635502    2.76465911329911
H           0.71318501691287    1.86898416105702    2.03172528593744
H           0.55924985056398    1.40293680438125    3.50068649533255
O           1.16994427156742   -0.99400625812770    1.54032122196025
H           1.32555135459142   -0.16502551717941    2.03682886902014
H           0.21509477576859   -0.99531079269252    1.33805335845243
H           1.85438888930229   -1.00135753334192    0.12970293095923
O           0.74954977603323    1.28749772792094   -1.50165495129566
H          -0.12352368005524    0.87063121993363   -1.68228106531290
H           0.28007458324433    2.03504568167172   -0.19107429086015
H           1.36384142985476    0.55617805805409   -1.33136334267314
N          -0.21885478990177   -2.13502337217187   -1.40711085185668
H           0.79851118256569   -1.91356966690165   -1.36844880621375
H          -0.74208353562311   -1.33080900886154   -1.87185975657831
H          -0.42176507896274   -3.04632419059614   -1.80077257718855
