    26
        -50.44388476  Gyration_radius:  2.445731573 Dipole_moment: 3.517
 S          -1.59007477583108   -0.07857210965494    0.28690603657917
O          -0.98017364276820    0.77320735618381    1.27160255250510
O          -2.99242379320508    0.00750887902419    0.12416948449003
O          -0.92622148003062    0.14174676190186   -1.10640388370003
O          -1.15198467147294   -1.53073448524565    0.62610215828142
H          -0.28095114308984   -1.39774789265436    1.15246370334149
H          -0.10856085133327   -0.40374392468671   -1.26533594020467
O           1.02142616385812   -1.09943186825673    1.85598954599354
H           0.72574297741575   -0.45242431741507    2.50278108296262
O           1.11944277702362   -1.37498338810889   -1.66166248841081
H           1.02455362203690   -1.70416827121160   -2.55734694512337
O           0.80913566374071    2.46023933330763    0.16694847397620
H           0.17614008644965    1.97129903836178    0.71852289881955
H           0.24593927877190    2.92792017678247   -0.46119620227653
O           2.39613599736689    0.30056930150204    0.16506036620279
H           1.61957716659711   -0.57703404015592    1.23116670748268
H           2.23223579925807   -0.11363663494633   -0.69014139403764
H           1.96154479220089    1.18010770845517    0.13362349306333
O           0.95031323397949   -3.36364029808849    0.07571741535012
H           0.00339499090102   -3.37272793151570    0.25188070754127
H           1.11348384010210   -2.16562868153918   -1.06119351758477
H           1.36429861931015   -2.99890960099424    0.86676536605022
N          -1.93849892703228    2.86593262068608   -0.67676979759993
H          -2.10502464675937    2.51328996845505    0.25900430515620
H          -1.95091225787329    2.05465415283446   -1.28339362468208
H          -2.73853881973593    3.43690813738299   -0.92526051443930
