    26
        -50.44120211  Gyration_radius:  2.81347677589 Dipole_moment: 8.297
 S           2.23234102346307    1.21762215590713   -2.20639736894894
O           2.68050808063095    0.59175026650193   -0.98570323496597
O           3.20176891966201    1.54413248468076   -3.17977448576749
O           1.14785916391191    0.28336058531304   -2.83149709912785
O           1.43007691777890    2.49679516875637   -1.84567986825664
H           0.76853493670204    2.29995461198289   -1.12865225607803
H           0.80302766347971   -0.34325749510709   -2.14430100928967
O           0.30751561421021   -1.40070399900397   -0.99406386080537
H           0.88314949049615   -2.15995618601014   -1.09966634638861
O          -0.36322582795553    2.01029019015880   -0.01593047867747
H          -0.84893864876653    2.82040263603008    0.14751155188548
O          -2.81710101697680   -0.85357291793594    1.42827570701407
H          -2.01264066621764   -1.13233092605162    1.93290176581648
H          -3.41249753744626   -1.60364999490997    1.42121713849133
O           1.16182139512381    0.00194100519924    1.07081416015504
H           0.59138969577216    0.78414432423437    1.00845815695944
H           0.58245551764389   -0.95296936930539   -0.14787404697078
H           1.92997702696869    0.22134806658375    0.50341455120022
O          -1.99458430608907    0.21553484308112   -0.89056359727171
H          -2.39712730132169   -0.12487437752002   -0.06091541464311
H          -1.03044756527573    1.35574232871552   -0.40003312312401
H          -1.41411919990296   -0.48831156680468   -1.20424467290478
N          -0.60026802352033   -1.65446492113790    2.77938589862685
H          -0.34679891853545   -2.63476630379028    2.76884993028193
H          -0.63251499548731   -1.35651431826494    3.74656900807845
H           0.14983856154234   -1.13764629134482    2.32789899448701
