    26
        -50.47455446  Gyration_radius:  2.42607793567 Dipole_moment: 3.597
 S           0.10774147173435    1.45747649937423    0.47083813730853
O          -0.44339391458295    1.19476914181333   -0.86300090732501
O          -0.64195879502132    0.76352850300647    1.50028762947962
O           1.52839179614132    1.13611804647949    0.49212489180544
O          -0.05976695452485    2.98231272487817    0.75093212369918
H           0.49300804113750    3.39646211502050    0.05934217254964
H           1.67842196689211   -0.21138516000998    1.54890000215501
O           1.52541251477666   -0.97227757858601    2.14234555053644
H           0.87532176149671   -0.65195335440721    2.77219372574051
O          -2.26814205531136   -0.51971864005584   -1.76253554146893
H          -1.71886369758655    0.25211729547619   -1.51108239024215
O           1.58759641284644    3.11193311076174   -1.31054306674790
H           0.97542906134324    2.68182933967268   -1.91581697831440
H           1.95777807960084    2.39974947711870   -0.76288773067033
O           1.04993797852727   -0.93736331596366   -1.47347311757076
H          -1.75328955197226   -0.99522977438311   -2.41950416534562
H           0.50028866862936   -0.14783767581620   -1.30064987310511
H           1.93157396627707   -0.68959659492304   -1.18347715081907
O           0.36347857301864   -2.69941750707673    0.45969532944906
H          -1.02591114994642   -2.08952706225285    0.64435118058704
H           0.65153078384658   -2.26468246124762   -0.36936755883896
H           0.88692580537015   -2.24705834523158    1.15973339825454
N          -1.87765385384925   -1.42460647683093    0.71643104117248
H          -1.49449361482716   -0.52543489866816    1.11383946591149
H          -2.61971839951871   -1.79994633924294    1.29572881733764
H          -2.20964488444091   -1.20026106889475   -0.25440496557111
