    26
        -50.45903121  Gyration_radius:  2.40968680897 Dipole_moment: 6.445
 S          -1.48475996150243   -1.34915571653515   -0.32695300579667
O          -2.52779064438598   -0.85727078401021    0.59139974907706
O          -1.91654384811287   -2.29834148836161   -1.29604999793966
O          -0.80942347090782   -0.17347389521629   -0.90855484420321
O          -0.42229227644862   -2.08024766210915    0.57269401093196
H           0.07013324819485   -1.42705973021014    1.11498105650652
H           0.40334090977669    0.90120849210716   -1.14109255684380
O           1.22071573125106   -0.43898197514971    1.85000021707671
H           1.66061162139651   -0.89919628527668    2.56629560397625
O           1.13116164259763    1.56042214686604   -1.22479567252557
H           1.19627519808892    1.76374598238019   -2.15883045382020
O           0.91025692224577   -1.93020227736161   -1.98083132712840
H           0.51480178405762   -2.80326274844040   -1.93681297251426
H           0.18817383088414   -1.32892886878427   -1.73115914318004
O           2.60573268529528   -0.60559181824931   -0.32020500044120
H           1.82959196760246   -0.51755240053118    1.04647125725493
H           2.14069367812870   -1.24997026321915   -0.89258366482635
H           2.37493461843315    0.25907906202064   -0.69812860855298
O           0.33028327502356    2.07577278610198    1.35211324559295
H          -1.17515843810619    1.82783708722813    1.00300933704613
H           0.65300009969671    1.22636269477395    1.70687155908889
H           0.75543786376237    2.15141769018061    0.48220525270208
N          -2.17733397657970    1.63476864162990    0.67613255986318
H          -2.35085988109304    0.52476260196328    0.68867792982270
H          -2.26448304497058    1.92131861837756   -0.29440843303719
H          -2.85649952432018    2.11254009983190    1.25955390186501
