    26
        -50.47455451  Gyration_radius:  2.42604948409 Dipole_moment: 3.600
 S           0.04610644667349    1.51194741191764   -0.26333599079856
O           0.29253210786400    0.60055906021652   -1.38616275256205
O          -1.24125532504682    1.25697901428909    0.35396083035530
O           1.15109855121116    1.44195558963771    0.68318764365438
O          -0.01866644983029    2.95782667794357   -0.84397391143883
H           0.87831857855481    3.09016445069008   -1.20892964174559
H           0.48846077312464    0.75154592269825    2.11136109248623
O          -0.07887305620299    0.32639986587876    2.78371920199072
H          -0.91241642860432    0.79872887667595    2.72051999178335
O          -0.96472779649030   -1.57484107577071   -2.26063038572892
H          -0.53719854109067   -0.70333866643587   -2.12502184926803
O           2.49033762153351    2.37809385648943   -1.43579484130224
H           2.38641459126645    2.05188771135726   -0.52647001243867
H           2.25605268957467    1.63806890578177   -2.00469418124114
O           1.53601539808752   -1.33951888665207   -0.03020967328590
H          -0.25109253785859   -2.21686315199290   -2.22524356548241
H           1.10767534516234   -0.64472214352423   -0.56789573274468
H           2.13587007915429   -0.86434784105334    0.55040569488109
O          -0.35836288124521   -2.12027546660953    1.73419591856298
H          -0.24881085018472   -1.33174386604342    2.31276928198843
H          -1.50861725578203   -1.69820911754986    0.82032171813854
H           0.40095256274582   -2.06883882153301    1.11760198727806
N          -2.14783305486272   -1.20128434004631    0.10108826081740
H          -1.91880950940848   -0.17503685400051    0.18901784973103
H          -3.13242668500075   -1.37708123602667    0.26476956521371
H          -1.85074437329279   -1.48805588648344   -0.86455650922290
