    26
        -50.45829582  Gyration_radius:  2.5684363938 Dipole_moment: 2.963
 S          -0.66664673768772    0.05516350634991    2.19606139258625
O          -0.66311708886735    1.11647076922018    1.18178731255444
O          -1.85474899403669   -0.76355845502818    2.09135331064252
O           0.57483558332987   -0.68767444269614    2.20259637397578
O          -0.73817625177174    0.79217252462540    3.59948240615328
H           0.17027814826764    1.01297170466041    3.78847501941443
H           0.83600095843538   -1.47340406780906    0.83456513209078
O           1.00824168860857   -1.95118744834316   -0.01696154700031
H           1.39400591107087   -2.79304092943304    0.23029629331747
O           0.38811592406751    0.64363871853334   -2.87377846115587
H           0.79597840009841    0.61970733932951   -3.74010456273120
O           1.76681201625791    2.09302404480392    0.82036956496961
H           0.87815122606223    1.71459030879048    0.99116763248047
H           1.61644141885260    2.94991720189054    0.41659874712844
O           2.30951837889054    0.26141028605323   -1.12444913392643
H           2.00736369727734   -0.57213408226483   -0.73062670102222
H           1.13834338767407    0.58389534008388   -2.22142393616921
H           2.26057424286206    0.91954642364498   -0.40317704165657
O          -0.88033893613543   -1.48268116339619   -1.93201276491063
H          -1.84114250166869   -0.72586602999693   -1.06252264245663
H          -0.44340768530145   -0.73314490096403   -2.40644852685687
H          -0.20983230024229   -1.79591413697949   -1.29547735995365
N          -2.37707848623021   -0.09822938474875   -0.34840803325587
H          -1.74469773314727    0.68235049488327   -0.07029447191775
H          -2.45530358839917   -0.59383666999134    0.57534294552030
H          -3.27017066765487    0.22581303917433   -0.70241094745241
