    26
        -50.45475598  Gyration_radius:  2.58867385222 Dipole_moment: 6.603
 S          -1.50881521667769    1.99212932792274   -0.83910622290094
O          -2.33099012832564    1.89418798878033    0.36281819237913
O          -1.77684624868766    3.10703499832275   -1.68926559289972
O           0.00174435268620    2.26237480442278   -0.25752050356215
O          -1.38571373406008    0.69637940071519   -1.48240417894600
H          -0.21357842724811   -0.01893640931943   -2.25993181698264
H          -0.01786341359825    3.20745070327859   -0.14477457570565
O           2.06874601229248   -1.26687176650717    1.01562033787304
H           2.95953925563110   -1.59530202883326    1.14173096892209
O           0.52579911683836   -0.56688358348653   -2.63637776611138
H           0.37337548697872   -0.60312685283006   -3.58116683169197
O           0.32521136759770   -0.54437088216125    2.95211971845409
H           1.02371567508139   -0.74545574255955    2.29503515057681
H           0.40243175343240   -1.20251830058601    3.64412478358348
O           2.15566000243414    0.60070475156740   -0.78937577525933
H           2.14413486454951   -0.51404327312076    0.35817842319529
H           1.77478403041848    0.16117572152098   -1.57081232476659
H           1.49420012868408    1.26378988420976   -0.53754058389881
O          -0.19089758373536   -2.07208131600978   -0.40522036114634
H          -1.21372363403643   -1.02819786154442    0.36263248577245
H          -0.00156037691244   -1.70413729074975   -1.28367595526990
H           0.63315915729183   -1.97432449355137    0.09892928453510
N          -1.70006102484447   -0.48056329874569    1.12618983809068
H          -1.96638943252619    0.50701354588093    0.78455960898789
H          -1.03362821524665   -0.40616073370365    1.92292654897409
H          -2.54243375752518   -0.96926730317558    1.41230713780899
