    26
        -50.45322696  Gyration_radius:  2.51802107735 Dipole_moment: 4.037
 S           0.15185128028332   -0.30888539454385   -1.08373345606746
O           0.00337271642961   -0.65160503780071    0.35553819483509
O          -0.38945228910325    1.01125036614312   -1.33236335848195
O           1.51466375764887   -0.50044504326060   -1.50855398021755
O          -0.77695238821780   -1.31023731412107   -1.84543714449946
O           1.49925392696846    2.03160738639744    2.32665086043224
H           1.99536924222540    1.33685612076806    1.81705115014079
H           1.82068964419308    1.98632561483534    3.22906161919962
O          -1.92556119097046    2.61109271605385    0.15082070337803
H          -1.28179017898494    2.33675954510768   -0.53293670607761
H          -2.73273844020149    2.13241272943499   -0.09027924029178
O           2.49312054325637   -0.02109760251039    1.02413310535793
H           1.61527670690260   -0.43289039820644    0.89749439605301
H           2.80880944873117    0.08932533980130    0.12018165106838
O          -2.99403004570624    0.33269384713421   -0.90679968219437
H          -3.28006008520312   -0.53462267901564   -1.19518660023427
H          -2.07907977045703    0.42184422694497   -1.21995724685345
O          -0.84790671355951    1.13990491859726    1.87174629950882
H          -0.57741118265495    0.33812461013306    1.25575654529876
H           0.04856428021007    1.57645184020102    2.11765040369601
H          -1.35266622342064    1.81417912682255    1.23099262921658
N           0.90633828073338   -3.23236243801670   -1.31848324384514
H           1.24408393873045   -4.00461521186568   -1.87809539231059
H           1.56029381540587   -2.45600492363128   -1.39638432632744
H          -0.30192823540649   -2.18143987632674   -1.73842795175842
H           0.87788916217406   -3.52462245906965   -0.35043922902512
