    26
        -50.44731987  Gyration_radius:  2.52069786657 Dipole_moment: 6.566
 S          -2.30435362193278    0.78934603350727   -0.34900298332222
O          -1.44845168346813    0.06446007667824   -1.25655154000712
O          -3.66041649148587    0.93781886284355   -0.72096450003743
O          -2.17102659353446    0.08814929422315    1.04814433948547
O          -1.69655552654663    2.17494432791184   -0.05356803560969
H          -0.73158594576626    2.09209673375330    0.20143212923131
H          -2.15074162990667   -0.90153247308000    0.81513471794816
O           0.74318962978278    2.03014209961946    0.81385825736990
H           0.80868305375130    2.76645078916267    1.42590169231656
O           0.79257431150060   -2.24647538149351    0.66783199511374
H           1.38960973592877   -2.99347419655034    0.71666279209201
O          -1.85633144032646   -2.26388955536379    0.16917924594572
H          -0.91977890354619   -2.42553899535880    0.41934650553068
H          -1.82941566359047   -1.94109558683642   -0.74047941275463
O           0.35100735542929   -0.08699763742509    2.26142837024020
H           0.69478448547434    1.20364431775143    1.37970690712372
H          -0.61413574472742   -0.06328846997252    2.21048297845427
H           0.61683825593022   -0.89789543884929    1.78677261624467
O           0.98596336639557   -1.10016806512328   -1.62458974128528
H           0.11127683207068   -0.67977825865528   -1.66759546195039
H           1.62410017030697   -0.34811458677646   -1.61311195774101
H           0.94277441965554   -1.81549974004311   -0.23389617296695
N           2.49349250715140    1.15099633793919   -1.45615027043997
H           1.96714946777935    1.59939655585804   -0.71197848752062
H           2.38975443460498    1.71354648469073   -2.29089008624669
H           3.47159521909459    1.15275647158046   -1.19710391721612
