    26
        -50.47229127  Gyration_radius:  2.48072250581 Dipole_moment: 2.004
 S           2.02328297790105    0.98718891418182   -0.35044889196571
O           1.31554489649030   -0.01700817473957   -1.13817155162533
O           1.20232915939832    2.15756879712792   -0.11496605928243
O           2.60136587219705    0.42105778621841    0.85314699739606
O           3.25147541817721    1.47143968903973   -1.22754920208032
H           3.90668973229657    0.81824969135678   -1.00659001679884
H           1.38543444892551   -0.00721880060570    1.80276778202691
O           0.62878909099973   -0.34791007519926    2.34511619593818
H           0.86294218155259   -0.17764005074783    3.25879421117626
O          -1.86954308833911   -1.95574064733086   -0.38586107134397
H          -2.29165347946262   -2.81105524831546   -0.46748005267298
O          -1.11478048264653   -0.10507826458266   -2.29228031615141
H          -1.49762791204398   -0.84243478238374   -1.78356238458389
H          -0.15872706974195   -0.13568529186767   -2.09493671034570
O           0.64917247506149   -2.19426394744662    0.23767744291600
H           1.01031175718785   -1.47622164945560   -0.32312322304894
H           0.70686783414529   -1.84964160924640    1.13944445901891
H          -0.90970846757707   -2.13287458394419   -0.16563927415108
O          -1.91988238761661    0.09963211542134    1.44410690004886
H          -2.06974029794917   -0.68252003493368    0.88272592831084
H          -1.04504980810393   -0.03979415465016    1.85349802690230
H          -1.67607067071718    1.23057309755722    0.34702569439434
N          -1.35565648551172    1.79250298999281   -0.49644102474305
H          -1.38911945840670    1.13673471273025   -1.33507591372793
H          -0.33477846347922    2.03205322206756   -0.34866857611451
H          -1.91186776270719    2.62808628981228   -0.63350937947400
