    26
        -50.47229140  Gyration_radius:  2.48075206096 Dipole_moment: 2.007
 S           1.05221607578418   -1.60442584436431   -1.22913000987552
O          -0.26957222984487   -1.00753715480789   -1.39208923557243
O           2.09122705124175   -0.59594616199629   -1.17857851559930
O           1.08866189754554   -2.54356152628102   -0.12455743835953
O           1.32662903521933   -2.46533569183493   -2.53130889140440
H           0.90973547991189   -3.28847228142424   -2.30007852668839
H           0.89255634655187   -1.69761747772784    1.22045840045844
O           0.68518223374329   -1.17845143806543    2.03915789235724
H           1.23187705350985   -1.55191155288541    2.73222970651156
O          -2.19790420949649    1.38274857233855    0.85151452684117
H          -3.06851259302320    1.59460585164283    1.18864128719005
O          -1.14584162582649    1.51897771568164   -1.69876723340794
H          -1.67425584027778    1.59612836355957   -0.88399761541904
H          -0.95985968516112    0.56411055732559   -1.78595422161930
O           0.37668583347808    1.53418821032428    1.81224109417224
H           0.53419533105877    0.58489384718067    1.97498235469605
H           1.01484619197683    1.80872508521566    0.37741560183304
H          -0.57483338975369    1.60796120471987    1.61582943818468
O          -1.81227498068200   -1.19306079646400    0.76719254872336
H          -1.14031885884639   -1.35753100664388    1.44292170438290
H          -2.13626304088666    0.38432025980906    0.83264861592714
H          -1.32454281831008   -1.24289574566919   -0.08142451156073
N           1.24465769899301    1.82024776531241   -0.66039224227880
H           1.87204808017894    2.57712505412375   -0.90519086180424
H           0.31709768740929    1.87310118090304   -1.18132221147740
H           1.66656328538811    0.87961306002125   -0.90244162613557
