    26
        -50.47229105  Gyration_radius:  2.48081784707 Dipole_moment: 2.000
 S          -1.70007393397473    0.78205347476646    1.29986183109621
O          -0.25504105085602    0.87367427911016    1.48271243156712
O          -2.10849904705409    1.29393869334420    0.00750431584642
O          -2.19846343248404   -0.54850851220673    1.59060915962245
O          -2.35793622136322    1.73124594070646    2.38543141862096
H          -2.40622031899700    1.14955351695825    3.13651393094619
H          -1.61755485226707   -1.52785863621622    0.46550114383976
O           2.58985637456403   -0.74127123121716   -0.45722391408802
H           3.45103285691967   -1.14998620155268   -0.36887740314590
O          -1.18421648810441   -2.14078832706222   -0.18216830160929
H          -1.84424680447853   -2.80027232158888   -0.40148141610343
O           1.75352932514617    1.85331701402225   -0.01850451707431
H           2.24706639181538    1.02680829507977   -0.16863652735156
H           1.12251112269138    1.64068265541768    0.69591178830800
O           0.41855660862278   -1.05411888551593   -2.12061049858545
H          -0.18634033575818   -1.50097194362331   -1.49871390017786
H           0.00454807730755    0.48456489021347   -2.05162832455758
H           1.28411519533450   -1.03957792449892   -1.67363721797389
O           0.98669322862554   -1.47899240087830    1.45976593904993
H           0.31768082185664   -2.01953902373011    1.01746460995503
H           2.04448108908623   -1.05787838128841    0.31965446758245
H           0.54172933522011   -0.62074075076090    1.62059930611969
N          -0.18447017988130    1.48550543336939   -1.74833959526136
H          -1.01361448380750    1.46639797054590   -1.08970811317195
H          -0.35677639834025    2.09807321600619   -2.53668789998949
H           0.65165312010184    1.79468915057747   -1.16531270352045
