    26
        -50.44982217  Gyration_radius:  2.46798339511 Dipole_moment: 4.174
 S           1.27042797127840    0.12248527950949    1.68280690028946
O          -0.15043939894157   -0.15611778660225    1.73354909475636
O           2.05207908195521   -0.46739938040287    2.70855249210174
O           1.77827491144227   -0.36713078818956    0.27729218082057
O           1.50556415260933    1.61760065963965    1.57713086708301
H           0.86654361148146    1.96036508513503    0.82695140507856
H           1.47268989184806   -1.30515711781511    0.12766058919713
O           0.82793117339877   -2.71422338384612   -0.30008653569301
H           0.87061809762377   -3.34914529590979    0.41685898445629
O          -0.53089401186483    0.36970125435984   -2.09119068431779
H          -0.86035648993482    0.69541700128790   -2.93015451783246
O          -0.12845104393040    2.31749687539197   -0.18663751353043
H          -0.97574410048763    2.26423988207125    0.32928477110906
H          -0.19911107357294    1.62577399951139   -0.87148469969649
O           1.69577806889306   -1.04162877799843   -2.45918623200882
H           2.27864740136375   -0.58461676381625   -1.84382033886315
H           1.49011927139003   -1.88770441963671   -2.04171175295156
H           0.29909723812023   -0.12978923704933   -2.28935951162062
O          -1.43016857206351   -1.45405944959241   -0.21651083039515
H          -0.11865934283589   -2.37749250354679   -0.32843093443314
H          -1.12688342277052   -0.98356714963712    0.58447868627854
H          -1.33068110881533   -0.80934373457117   -0.93636281044729
N          -2.25206330012692    1.79395320286452    1.36155453101565
H          -2.50766868974133    2.43112650347448    2.10462966894314
H          -1.69463151568345    1.04544607992900    1.76847734032250
H          -3.10201881064428    1.38376997544982    0.99570885031146
