    26
        -50.44541484  Gyration_radius:  2.49159315535 Dipole_moment: 6.419
 S           1.98539624444808    0.60260943043813   -1.38681656707320
O           2.37803312310332    0.06000634804717   -0.11670554615779
O           2.87326358596521    0.45862584440393   -2.47947372461662
O           0.58717369754446   -0.04216116280719   -1.75071977879114
O           1.57958748041015    2.07839114558205   -1.22501471644462
H           0.99902269079782    2.11245588493862   -0.40559785612424
H           0.46329293390406   -0.91216491114855   -1.27918909571765
O          -0.14969497284779   -0.04543314778946    2.49509959208264
H          -0.04590220519240    0.11014667977445    3.43429701266086
O          -0.06829511167202   -2.24165444536934   -0.52977816019439
H          -0.43040804000166   -2.87942406813078   -1.14691363783396
O          -0.08222785677406    1.99557281017596    0.72924750264814
H          -0.90237887783190    1.78386979841306    0.26413075295185
H           0.03686744032329    1.29392180103309    1.40294019686117
O          -1.97205782527804   -0.91426926095389    0.65647226350029
H          -2.10918684652814   -0.13631932844261    0.08985719836070
H          -0.84605641856090   -1.82394414911567   -0.05521246336773
H          -1.48986751375685   -0.60327322472190    1.44306446252910
O           1.62537279215444   -1.76220591014463    1.66963658744272
H           0.54988306153471   -0.71640543196693    2.24184619277402
H           1.14317677186209   -2.29626398508616    1.02554108353700
H           2.12756508312092   -1.12864903886429    1.12471229007239
N          -2.06107095647162    1.19038936006707   -1.27077359716295
H          -2.13407137907435    2.18737738028172   -1.44399436721749
H          -2.84412396479018    0.75969543970054   -1.75085591227698
H          -1.21329294640235    0.86910612168830   -1.73579971239542
