    26
        -50.44541484  Gyration_radius:  2.49151923959 Dipole_moment: 6.416
 S           1.17758574457043    1.03323283655628    1.94236971019905
O          -0.17291366585303    1.50874030870405    1.83390737134857
O           1.78420506216473    1.02650508172804    3.22104465994673
O           1.20158607720908   -0.42788454853885    1.33594119240691
O           2.07673351133412    1.76966953074706    0.93338956021511
H           1.56250665905830    1.78333762976008    0.07025109807574
H           0.29563946910054   -0.84317686372214    1.37347008943065
O          -1.06748518364135   -1.68350983483174    1.15642485656159
H          -0.98116051751470   -2.58913064568950    1.45843346621232
O          -1.86805344228257    0.98317682949675   -1.33941052155092
H          -2.47874981950803    1.56298916250150   -1.79534420675638
O           0.77679778766325    1.52180178055477   -1.26600554253393
H          -0.19981870405520    1.45785601828061   -1.21661663234099
H           1.08707718084699    0.65726915209561   -1.56640771817794
O          -2.60307431751153    0.67835218285048    1.13978644509040
H          -2.41360263544355   -0.25111058263342    1.32090928447156
H          -1.84494736902072    1.15490684073429    1.52540671684519
H          -2.20737917423185    0.89904719717307   -0.40051595741890
O          -0.84021192919019   -1.54416396637649   -1.43628822212277
H          -1.04864879522944   -1.70920097269789    0.15461384236692
H          -1.28207778027531   -0.69103528440246   -1.59408297820721
H           0.10903468337108   -1.39611334047652   -1.58492736622912
N           1.98581631015572   -1.13828817615201   -1.42861657806123
H           2.15910377626930   -2.12284075111406   -1.60119360660464
H           2.01439178607953   -1.00325053325047   -0.41906620057511
H           2.77764528592177   -0.63717903135066   -1.81747275254028
