    26
        -50.44541505  Gyration_radius:  2.49142895869 Dipole_moment: 6.414
 S          -0.96664526739190   -0.93131909980547   -2.10328705292001
O           0.45036179416468   -1.15235157894696   -2.03433847917584
O          -1.74920028129357   -1.83495325618562   -2.86094590547499
O          -1.49899704530398   -0.88845051215997   -0.61395470733960
O          -1.25195746477509    0.51540047040154   -2.54431995931382
H          -0.62628588194093    1.09120264812585   -2.00886015609620
H          -0.88386509607682   -1.38011508124811   -0.00189628198396
O           0.00061607726241   -1.95415154907596    1.22259863692771
H          -0.52156847862656   -2.49329654005487    1.81877948130489
O           2.32649439922084    0.84159964220055    0.36012098144593
H           3.20151001932614    1.21986842783378    0.26913868955699
O           0.21093900625809    1.89222897156181   -0.94700437392201
H           1.03553976430698    1.48268228485824   -0.61147779757266
H          -0.37700189088499    1.97411962237012   -0.18448043535407
O           2.37203792964871   -1.68346046626911   -0.27279125897972
H           2.41094948749555   -0.12578420755645    0.11374527592198
H           1.77152534204949   -2.08921484997183    0.36551491781283
H           1.83374289515722   -1.59161467373401   -1.08042336197381
O           0.35014327201843    0.43664797053144    2.20018699627638
H           0.16272883330846   -1.08158881133899    1.68816613111854
H           1.13723261375498    0.70676274971769    1.69482480532608
H          -0.39569844172774    0.95044547704771    1.84690571331411
N          -1.97004006811137    1.56355023223353    0.97585011405082
H          -2.51400046435255    1.44413979372477    1.82376391782257
H          -2.12902214734707    0.73738539317551    0.40105401969963
H          -2.37953889611508    2.35026692250509    0.48313005955848
