    26
        -50.46913530  Gyration_radius:  2.47621540489 Dipole_moment: 4.001
 S          -0.05200924918870    2.38384361450002    0.27542721952711
O           0.32322202309682    1.67950314114280   -0.94355837691787
O          -0.57424495733631    3.69578627834977    0.08642635793068
O          -0.85252080994151    1.50672399470832    1.14112857530063
O           1.31567155824013    2.54200057255248    1.10886105407502
H           1.56137675865819    3.43255287533706    0.88572807521556
H          -1.89205604856081    0.35106178180737    0.61641113864057
O          -2.44767534241734   -0.40066697411331    0.29870120967419
H          -3.33781872575929   -0.22319903530492    0.60509223060941
O           0.60456109962848   -2.10164708133941   -1.60501980377606
H           0.72387845141277   -2.68353908447856   -2.35568846732213
O           2.23136172654707   -0.11660883976377   -0.59288787942784
H           1.85053269521371   -0.88845213615586   -1.05012970626213
H           1.66112888814099    0.63892268102936   -0.85153012919836
O          -1.12867753940464   -0.23052418758062   -2.12971514109920
H          -1.79712454606081   -0.34997632979892   -1.43714312209414
H          -0.62212001878753    0.55859201750851   -1.85315160287195
H          -0.06379314055914   -1.41055085504108   -1.88685690779349
O          -0.57381916913526   -2.35487849930655    0.85616081810649
H          -1.37529159717380   -1.83078985944281    0.68101863338810
H          -0.14851777561881   -2.47268060380632   -0.01374277780113
H           0.37681819484318   -1.24181094588270    1.50485673915129
N           0.93259815709888   -0.34829656132941    1.66523462404615
H           0.25763280405394    0.45541809398748    1.58472522456342
H           1.61944921642020   -0.25362619309176    0.84935738535948
H           1.40743731659263   -0.33715790448170    2.56029461898017
