    26
        -50.44639614  Gyration_radius:  2.51421183367 Dipole_moment: 3.606
 S          -0.88602372424509   -1.40491161555815   -1.65689883880966
O          -1.29250346540953   -0.25406721746011   -2.41623268255979
O          -0.95362220195067   -2.68245238088453   -2.25883016848964
O           0.58203829554374   -1.15239689319203   -1.16988300207889
O          -1.68775458682648   -1.44947718918176   -0.33037395717140
H          -1.69216077206109   -0.54265688840716    0.10204723258540
H           0.84017213368714   -0.19614832438430   -1.29637732351287
O           1.26330340055548    1.33178224117662   -1.52256178736514
H           1.56371216025153    1.41920290091410   -2.42899416278471
O          -1.64763775441798    0.81413011532566    0.89376774552066
H          -2.40967761926308    0.85990097385175    1.47378318961593
O           2.35502455253948    1.48835991074743    1.02633918026048
H           2.07912546105605    1.40592525567598    0.09979710310365
H           2.45986231486143    2.42491370486513    1.20172102795781
O          -1.15353455963802    2.20905191497790   -1.41978227579690
H          -1.42430846972202    1.97197689468361   -0.51824851374920
H           0.36536328708900    1.79178299919817   -1.47637907276118
H          -1.42745439274723    1.44685413789300   -1.96521546864129
O           0.33488579237689    0.23648916836428    2.36677600432387
H          -0.84204832043331    0.63652807516674    1.50652638794393
H           0.43913737041943   -0.73106267919354    2.18980275208143
H           1.13030819938221    0.65897999208675    1.98979308954158
N           0.50484381338429   -2.34019860003593    1.55443602245809
H           1.08655243912873   -3.05116441995876    1.97983583215644
H           0.84470159038275   -2.17700611136394    0.61210732544790
H          -0.43230494396827   -2.71433593525819    1.46304435066990
