    26
        -50.46913530  Gyration_radius:  2.47622352195 Dipole_moment: 4.003
 S           1.09415820448933    2.12655527324363   -0.20517745054054
O          -0.01083081346358    1.82514583106203    0.69544118143968
O           1.95130619103330    3.18491654462423    0.21293291287778
O           1.77450915340080    0.88674912048933   -0.60459438510353
O           0.40145689166741    2.60209344796285   -1.57776275140214
H           0.45391497048429    3.54692120010207   -1.48865100207153
H           1.94160845871511   -0.44669837920287    0.33663744927568
O          -2.00500849924103   -1.43887474921351    1.12663801491986
H          -2.65224295293117   -1.80087272424783    1.73191084917150
O           1.96257506161986   -1.27614370800501    0.87172173055156
H           2.88795164036408   -1.47784914777403    1.01567115752297
O          -2.11546988266662    0.77693184203802   -0.51344488281820
H          -1.46695846475492    1.31862655799158   -0.01459927156133
H          -2.30460470108994    0.01468417293374    0.06365094636814
O          -0.08846239257898   -0.22922864470717    2.40911755856731
H          -1.31224492156910   -0.98639177545296    1.69131630530578
H           0.70643089494559   -0.69523079225556    2.10630414530864
H          -0.07255672031505    0.62482770397736    1.93361154940138
O          -0.08687768219021   -2.51858251099882   -0.50580936378120
H           0.69481000889738   -2.28533689451693    0.02542727654749
H          -0.85329899852980   -2.32441301663597    0.06551129706982
H          -0.14528271662275   -1.27727033221182   -1.51529186537645
N          -0.17861723483005   -0.28939440808556   -1.91024807323202
H           0.65060761278570    0.22855131018997   -1.52025044107016
H          -1.05112055248271    0.18203125690219   -1.50669603775889
H          -0.17575253511983   -0.27174721820500   -2.92336687961558
