    26
        -50.45060075  Gyration_radius:  2.56325288712 Dipole_moment: 6.195
 S           1.42123194389491    1.04819604554876    1.37310230586643
O           2.13988385109338    0.89498478500944    0.12689783037534
O           2.08177810497869    1.73827111000418    2.41600715347897
O           0.05479337894450    1.73403722352963    1.01797950233044
O           0.95455307215126   -0.32424258622484    1.87260821555748
H           0.47423398462448   -0.83889835532260    1.11974193137248
H           0.27620307857858    2.35044136052035    0.24177707076092
O          -0.35759537558490   -1.58719876604878    0.11860330980113
H          -0.78654235219504   -2.22740566718481    0.73810657830489
O          -0.44676008110323    1.13076739796091   -2.63207284222942
H          -0.57904073506824    1.12850489977876   -3.58055355123971
O           0.83524666193508    2.93392717277144   -1.07132201941345
H           0.33267060300870    2.43804206490190   -1.75131787442496
H           1.67668543615634    2.46530165050611   -0.97104235722165
O           1.29904675179510   -0.66084534596646   -1.88740164504238
H           0.22459269671788    0.41536688739420   -2.43489073501798
H           1.78659756252645   -0.14005172960366   -1.22018880829311
H           0.79815116350789   -1.30872714566647   -1.37206932275813
O          -1.96310593685109    0.42572400299507   -0.43588587222317
H          -1.58139172490450    1.02248707084563    0.22147115754975
H          -1.62593388298212    0.73415400434165   -1.29494975933557
H          -1.05939524571740   -0.92579105686347   -0.11939271495076
N          -1.41536526467551   -3.01825539632997    2.13933917042654
H          -2.39589917564933   -2.83468573747596    2.31170096259348
H          -0.87866385543648   -2.57659177531270    2.87668089950341
H          -1.26597467979929   -4.01751210411258    2.19707140421053
