    26
        -50.45060073  Gyration_radius:  2.56331693259 Dipole_moment: 6.195
 S           1.83991572903321   -0.02101618320556    1.27154327011394
O           2.29951316343839    0.32304188478131   -0.05640383870190
O           2.81019395140317   -0.05288226185204    2.30001237065914
O           0.68324300483008    0.98227079522275    1.61652252271486
O           1.08569485156179   -1.35526810739721    1.22769407215564
H           0.37732068831224   -1.34608259215254    0.47896036878654
H           0.95419444229256    1.84673852731662    1.15760585683703
O          -0.76571797316784   -1.35399645390389   -0.49436996386105
H          -1.26255309004729   -2.12546249706403   -0.12598341744224
O          -0.48707475719034    2.32319480746139   -1.66444732313002
H          -0.75040686347407    2.80407302461645   -2.44964731232505
O           1.45896092929551    2.88309730740304    0.13324751179496
H           2.14135210335301    2.28318679027890   -0.20151670356559
H           0.74522464165782    2.87750792962014   -0.53862582500417
O          -1.80736188203329    0.92543441689820    0.31583913562318
H          -1.18393833918078    1.05018258163499    1.04364741514971
H          -1.52464574002777    1.54555127557479   -0.37873099100212
H          -1.28134069090556   -0.54677261221564   -0.23135496059081
O           0.77666719067834    0.11644594901776   -2.25219075907727
H           1.48091672251352    0.15225405586903   -1.57616222120599
H           0.19482321286844   -0.59913042397573   -1.95963633026839
H          -0.02128366617459    1.49514212811365   -1.97880913522682
N          -1.87947835999287   -3.36806775269173    0.90338945038144
H          -1.13916558455393   -3.44526033217794    1.59110985215150
H          -2.01274632961536   -4.27815376795948    0.48113786285826
H          -2.73230734485809   -3.11602850921697    1.38716909217406
