    26
        -50.45060072  Gyration_radius:  2.5621952537 Dipole_moment: 6.176
 S           1.51335246133149   -0.54349471966440   -1.55178577784500
O           0.98154798376296    0.73475566503249   -1.97165222465438
O           2.54498091066169   -1.10203122902368   -2.34176339135142
O           1.97497800169867   -0.36637222006690   -0.06209549199061
O           0.37047992303934   -1.55407521235237   -1.40042587779953
H          -0.39101954601722   -1.15717609363725   -0.83010484165174
H           2.30151433013434    0.59391217089236   -0.01175285315117
O           0.14754580769700    2.63646324809737    1.19734413425345
H          -0.18249966365301    3.46430829542948    1.54787829425714
O          -1.47235657417930   -0.70214060850122    0.10635784538541
H          -1.88098471440269   -1.58373143827045    0.28950107381011
O           2.43094538028473    2.12287511953980   -0.16464732794373
H           1.71127522175318    2.45286108456065    0.41328165832312
H           2.06353574229055    2.10675518544186   -1.06045011110190
O          -1.20225616700802    1.85752402119565   -0.89668185446304
H          -0.42642611521399    2.41005594596865    0.40962128105748
H          -0.46393454394665    1.54258280653055   -1.45335202438947
H          -1.66103711443649    1.05129176613073   -0.62163257913773
O           0.15778938565777    0.01097764979148    2.04837059500004
H           0.17270524408136    0.98049240061593    1.96628216689637
H          -0.96386749667822   -0.46236146776249    0.92522688667964
H           0.95902868234497   -0.29881722629387    1.60564309894226
N          -2.16473332544670   -3.27920164130464    0.46224543748838
H          -1.98491667080026   -3.63556581520052    1.39259970067763
H          -1.46474917039870   -3.66283930617714   -0.16206000932335
H          -3.07089796256289   -3.61704838096973    0.16405222204674
