    26
        -50.45807540  Gyration_radius:  2.42103983052 Dipole_moment: 7.656
 S           0.65311150504940    1.30693508541448    1.64696149800064
O           1.55812475698787    1.48866020662256    0.52123838512627
O           0.95166954254907    2.05367956042874    2.81884653896339
O          -0.79710881525712    1.71083293124695    1.12528295890196
O           0.48066890925450   -0.15041956695005    1.92934421924042
H           0.99445230016437   -1.37088079630495    0.99737459770627
H          -0.63952913338791    2.19265858151510    0.26816145033583
O           1.17409511150936   -2.14387710041554    0.40117181410872
H           1.66477202254148   -2.77697363676070    0.92610838557040
O          -0.35129697057779    0.14174695997704   -2.39489498690751
H          -0.33325835556710    0.07640210632719   -3.35050121881844
O          -0.11958293130945    2.63140757414949   -1.17644159082974
H           0.76952992955315    2.47020948190241   -0.81531078751289
H          -0.32211497986334    1.85401882468487   -1.72728656859868
O           2.00534344664407   -0.25288725433417   -1.40990592302096
H           0.59530457787080   -0.01080018145732   -2.08417398021453
H           1.99496078061726    0.43579422843745   -0.70845100166306
H           1.92340051662859   -1.08831725043786   -0.92406926822257
O          -1.26077273627369   -1.87584820873673   -0.84119149356866
H          -1.80486316435673   -1.20506179757951    0.43870136737342
H          -1.05691014957236   -1.15559248938466   -1.47530052488547
H          -0.39302418808599   -2.18435362927656   -0.52270998133727
N          -1.94003017945528   -0.68314597283828    1.37305143778179
H          -2.48515745960200   -1.21922646008235    2.03944176526619
H          -2.33934104718845    0.24141107133138    1.21373206231641
H          -0.92244327887695   -0.48637227747813    1.73082086489271
