    26
        -50.46011215  Gyration_radius:  2.39808837344 Dipole_moment: 9.011
 S          -1.45812515802737   -1.24572182416717   -0.39936571037578
O          -1.54783396553051   -2.04317366268934    0.82812033811418
O          -2.40695539330417   -1.53171038111411   -1.42150830877594
O          -1.78072095553322    0.25698479436784    0.07885189927481
O          -0.06744469680777   -1.20581929849424   -0.85437994833932
H          -0.29803718227413   -0.71127479247049   -2.47194026491869
H          -1.21217820702060    0.46671540158020    0.84185330510654
O           1.50947789559733    1.82462492855105   -0.00991918074532
H           2.03137993590350    2.61458003004302   -0.15699858635288
O          -0.66004609210938   -0.23467391995889   -3.24285186792354
H          -1.57613582039517   -0.52893697339014   -3.27142173840942
O          -0.11339801590155    1.22453803585213    2.00691032999612
H           0.54991364103123    1.48433626906366    1.32186998550619
H          -0.55570723593423    2.03078553191857    2.27795253944695
O          -0.46778010689398    1.92443914228529   -1.68640244216536
H          -0.41442861344995    1.29684833426586   -2.44214038830248
H          -1.16591106374586    1.54401129348182   -1.13234698933207
H           0.79958501762973    1.82974458186670   -0.72492815275852
O           2.27551210249177   -0.83534662813487    0.22983389575189
H           1.34759506372935   -1.27273918441578    1.41473873084807
H           1.58275005621121   -1.11508633235681   -0.40300597715669
H           2.25736053313762    0.13377087196900    0.16373665252624
N           0.55814579452187   -1.44671163481080    2.12106468146166
H           0.82395566671767   -2.12963478362995    2.82212115127974
H          -0.33281440114783   -1.78533423639652    1.56561389795969
H           0.32184119106796   -0.54521556322725    2.54454215829126
