    26
        -50.44862208  Gyration_radius:  2.41686909593 Dipole_moment: 4.695
 S           0.05065945292786    0.98798617731685    1.82703490378369
O           1.37973984507112    1.68959298854032    1.52490380857832
O          -0.73440359960614    1.77367343844480    2.70694703458510
O          -0.63173391549634    0.87155249555547    0.43359414487097
O           0.28952371743548   -0.37950482081138    2.22944057270443
H           1.02903529797802   -1.40912912530705    1.20210883029430
H          -0.63621039244120    1.72219479444934   -0.08649591247931
O           1.52123487351730   -1.93723523191616    0.52721532473325
H           2.01831969999305   -2.59747705208198    1.01232958088631
O           0.37097951380748    0.49390761835147   -2.42178299391895
H           0.60831867370009    0.18488026217739   -3.29731437140688
O          -0.62491985854366    2.74834396734948   -1.32467601917508
H          -1.51799427695497    2.88294959283058   -1.64868185052927
H          -0.21495425113948    2.06991810195240   -1.89774891007948
O           2.30002688046560    0.44644050543019   -0.48106877910361
H           2.18891698819408   -0.48518463680082   -0.20938709754593
H           1.66650167244177    0.58276562666239   -1.21406934047017
H           1.82478760523055    1.22690934879851    0.72567457285030
O          -0.61425126556841   -1.62135048263984   -1.26897774414030
H          -1.29395002305064   -1.48715684388066   -0.57121957469446
H          -0.09653592372756   -0.27454232688559   -1.97449458884207
H           0.16095407223259   -1.93194181412567   -0.77941668364441
N          -2.17735838167009   -1.44934460927906    0.98900707637290
H          -2.86287406576436   -0.70494662142225    0.99694232285872
H          -1.40546369514646   -1.14261281521299    1.57459361017608
H          -2.59834861387761   -2.26068852751026    1.42554210332964
