    26
        -50.44809699  Gyration_radius:  2.47119250274 Dipole_moment: 6.453
 S           0.43693142655083   -0.73551665023404   -1.38660544334749
O           0.86292003220274   -1.26362993895736    0.00212562422524
O           0.57504594454435   -1.76674699680817   -2.34367929910746
O          -1.07900765004562   -0.41031710848791   -1.15599158595373
O           1.04800909935230    0.53997717368632   -1.64652673458518
H           0.66927037127585    1.83428160831121   -0.74542423604644
H          -1.46236941938377   -1.13898861617386   -0.57457893403833
O           0.44604176926749    2.52171966988136   -0.06998189663863
H           1.02299586120477    3.26681701415517   -0.24653508332809
O          -1.95479781327115    0.18047159584607    2.18465955061362
H          -2.58663180041147    0.36810795360305    2.88007902772537
O          -1.79584680845776   -2.06293799150042    0.65734493055329
H          -0.95273310488495   -2.48582104571915    0.84635896560527
H          -1.92764463918577   -1.37287963701162    1.34007951659351
O           0.71029270305966    0.54506673313904    1.74986171283564
H           0.87437172073157   -0.52202419726295    0.72320565928910
H           0.69084368036401    1.38062024275354    1.24145048617218
H          -0.19021187172970    0.41813743733589    2.10293753783346
O          -2.20187982728818    1.79139582825417    0.13278942428313
H          -2.12177456513981    1.14715814979468   -0.58321871708092
H          -2.14815908357909    0.82006145874258    1.44321462408811
H          -1.37488404911061    2.30013263077657    0.10188344591474
N           3.40320923479970   -1.32686892161482   -1.66312619919405
H           3.03769942874573   -1.93565561997341   -2.38581929542860
H           2.98201641822992   -0.41973875673586   -1.81941399522545
H           3.03629293221217   -1.67282202576050   -0.78508908572203
