    26
        -50.44962128  Gyration_radius:  2.52297369547 Dipole_moment: 3.568
 S          -0.00899103409071   -1.35184546532424    0.09325937583777
O          -1.42315464223895   -1.63615700003984   -0.05547212930970
O           0.50605912763426   -0.50905377388265   -0.97370984053496
O           0.28815014051824   -0.75463670068879    1.40164187165905
O           0.78996283392710   -2.69380190064784    0.01158568088377
H           0.39351420850683   -3.22657260380412    0.74074695958505
H           0.16159803164486    0.74008625053118    1.36358460149948
O           0.05248648399802    1.75192284916544    1.34688871618579
H           0.44600632483110    2.06476440132297    2.16375296017494
O          -0.79568460328144    2.07545239105484   -2.33892159651057
H          -1.38325131396997    2.80710945585732   -2.53964246701810
O           2.71699554307605    0.67096223140828   -1.26502020807818
H           1.93956010799775    0.05644581921087   -1.09580481772297
H           2.94365888522421    0.54682176163276   -2.18923090328190
O           1.13491260455943    2.56906957127590   -0.80822413064254
H           0.36957386806612    2.39346169909760   -1.50384283639060
H           0.72669790872437    2.27086833092674    0.08907938276663
H           1.87139110022939    1.85453585341550   -1.01742115069069
O          -2.10454661603049    0.88879579545726   -0.42951446026177
H          -1.96256961710050   -0.08133532232071   -0.37489790732783
H          -1.68281534181395    1.25530548696830    0.35554972775032
H          -1.30193002243885    1.47841043476245   -1.71397412858097
N          -0.72126643260048   -3.40593951822926    2.03796012092975
H          -1.11010986050457   -4.10255376359099    2.66173312067618
H          -1.46388999515429   -3.03657751661940    1.45063284873194
H          -0.38235768971251   -2.62553875694163    2.58926121966676
