    26
        -50.45720845  Gyration_radius:  2.51182433298 Dipole_moment: 6.172
 S           0.47647638454212   -0.35388016367012    2.17129405072854
O           0.82853087120086    0.92334905327236    1.51380197741398
O           0.08834960965592   -0.18274272353039    3.53140155350687
O          -0.58674228628466   -1.00340358145813    1.36199893908565
O           1.72937974883037   -1.27544663784704    2.09440703900665
H           1.98342256712137   -1.40166250651230    1.14666156115051
H          -1.56291498296765    0.23102692551918    1.31881440993148
O           2.33705334798256   -1.76235694400320   -0.43796766274417
H           2.79197782329977   -2.60587185128945   -0.44456691361151
O          -0.34500406914056    0.51784571925175   -2.31588194211411
H          -0.11896635033929    0.72497474098108   -3.22378783366730
O          -2.48438725100282    1.69353424468141   -1.25660775320756
H          -1.67998850262199    1.32000339307958   -1.68988996697971
H          -3.22156869800588    1.15914898613032   -1.55721937841769
O           1.79412173383022    0.93442759820751   -0.92363632591342
H           0.47650549040748    0.73664235620983   -1.77515336744267
H           1.49100894585624    1.03716525709419    0.00830083427477
H           2.29110064780882    0.10603154812554   -0.92545146211087
O          -0.16982976727251   -1.97955645792956   -1.05859170003699
H          -0.36395635647159   -1.20175877006310   -1.60526656827838
H           1.40200197846757   -1.93712871619755   -0.76006264363160
H          -0.43077578869200   -1.72796248473806   -0.14512137786586
N          -1.70177035859629    1.28874014000687    1.26157816674342
H          -2.25759503574070    1.64361779352032    2.03238276300633
H          -2.08171875835709    1.55961379322124    0.31655289736426
H          -0.68471094351318    1.55564928794185    1.36201073380433
