    26
        -50.47229289  Gyration_radius:  2.48018321196 Dipole_moment: 1.995
 S          -1.65763698821927    0.77410375644997    1.35884530817577
O          -1.67309827490531   -0.30424263767809    0.37496368823902
O          -0.58810303526321    0.60617233924896    2.32118547612626
O          -1.68360984696907    2.07945532454779    0.72827251761637
O          -3.01188050673831    0.66168075089785    2.17434530057312
H          -3.61901615913701    1.10537500017940    1.59168949125030
H          -0.28622612187660    2.25641248696665   -0.03240040326950
O           0.95317397252137   -1.36112606425324   -2.16785360293316
H           1.07855564662100   -1.68136646687059   -3.06129536778970
O           0.54341494147817    2.32194804799680   -0.57105041661815
H           0.83420488897644    3.23212458064069   -0.49514091661153
O          -0.20917395157650   -2.53819510233231    0.04356756143669
H           0.19989884061543   -2.32633295220304   -0.81486695154666
H          -0.92400089699963   -1.88080613834306    0.14813244786291
O          -0.91637721710633    0.45120535967438   -2.06139761919253
H           0.21350407935933   -0.68872617832068   -2.20892759113678
H          -1.33697358874856    0.18248621518429   -1.21802700265244
H          -0.44655736726482    1.26906663805466   -1.84784014895099
O           2.35000590065882    0.26650265105579   -0.44227090795055
H           1.78163035884953    1.05863008130497   -0.48730476094741
H           1.85759135853859   -0.50717876641399    0.86162745083794
H           2.02767268309337   -0.32297485771689   -1.14785763620940
N           1.29762806002578   -1.04525610167411    1.58755528479330
H           0.56354570871176   -0.38653258736384    1.97315003375234
H           1.88372858560410   -1.41426863993355    2.32693827634829
H           0.76809892973589   -1.80815671912051    1.06596046879945
