    26
        -50.47229267  Gyration_radius:  2.47994661742 Dipole_moment: 1.989
 S          -1.59225721838464   -1.13739354758016   -1.16740927218119
O          -1.69073318924072    0.10445814239614   -0.40628983390287
O          -0.53509692880334   -1.07811019200955   -2.15600822475046
O          -1.52351121484711   -2.29694482440011   -0.29969134008118
O          -2.94851574370196   -1.28126658805403   -1.97474401105909
H          -3.52557037270841   -1.64176266800263   -1.31004816786260
H          -0.11694731690486   -2.22448410307557    0.46109420998708
O           0.71537651786470   -2.12589502626324    0.99048048773278
H           1.07559731654055   -3.00966511376285    1.07946254951288
O           0.84255422465391    1.81299042224194    1.86077478770120
H           0.94119823144356    2.30441637007812    2.67640487471315
O          -0.39692862467924    2.46178724540734   -0.52007953974689
H           0.02432357027382    2.44669828409025    0.35826760605734
H          -1.06111098897673    1.74619661460996   -0.49019541153282
O          -0.88554157686504   -0.12005171390146    2.11917185158158
H           0.15523835380617    1.10727783140260    2.03619429070859
H          -1.32244604962909   -0.04744824403197    1.24486595850470
H          -0.35611457039287   -0.92700429430748    2.05936062058584
O           2.36274292805529   -0.00328155982635    0.45806733553848
H           1.99495764712161    0.68350417598697    1.04313931193750
H           1.85501373335325   -0.81248848619237    0.65818193848017
H           1.81713515232454    0.47004302361411   -0.96300661046859
N           1.22004710145814    0.81744653534505   -1.77096020004481
H           0.63408129449988    1.62455723545641   -1.39719122974661
H           0.53815562970787    0.04504748757164   -2.01574408733852
H           1.77835210402761    1.08137301320642   -2.57409788432452
