    26
        -50.45720841  Gyration_radius:  2.51188142753 Dipole_moment: 6.175
 S          -0.53815029403040   -0.99815972415421    1.94491268743355
O           0.72759845819613   -0.24682074435800    1.80015977502586
O          -1.10640460164950   -0.87157836024944    3.24530370332961
O          -1.46519879737593   -0.53547163927424    0.88008082196656
O          -0.22431443898896   -2.49496626396414    1.65200973222034
H           0.15457208335239   -2.57642658126389    0.74180729837962
H          -1.34632622783819    1.00356800866215    1.18988608058522
O           0.64228595525570   -2.76461680253567   -0.83715789667577
H           0.42185780937090   -3.65949901259392   -1.10013252774762
O           0.78025704673730    1.04450131904858   -2.01241946888307
H           1.34284988111826    1.20145146782360   -2.77212013141276
O          -0.28521471773486    3.15036393960582   -0.78272031731428
H           0.17011494893760    2.41220229724189   -1.25392183836449
H          -1.05860834172636    3.36492300895666   -1.30730874497095
O           2.14148327844820   -0.44892705622310   -0.39860531317522
H           1.33923478007543    0.50991320614436   -1.36668637231949
H           1.71649770416688   -0.34522393267000    0.48427101184185
H           1.95848268938336   -1.36404684079235   -0.64821769831771
O          -1.07973882785766   -1.02474507106063   -1.68878450470021
H          -1.37354441400305   -0.84662794151764   -0.76809364508013
H          -0.55246210369211   -0.25150900415631   -1.94506242441192
H          -0.03335276661397   -2.16216776041267   -1.27190632386786
N          -0.74650066931802    1.83437030948116    1.49193881766726
H          -1.13981448941522    2.31907209125862    2.29157048999955
H          -0.55804759819780    2.47002848939736    0.67272989646347
H           0.11244365339257    1.28039260757653    1.75846690231693
