    26
        -50.46011225  Gyration_radius:  2.39827259312 Dipole_moment: 9.014
 S           1.55254745654052    0.50916012323307   -1.08168545336733
O           0.93775016780856    0.98050630811541   -2.32682964405066
O           2.97018418951965    0.60255394480975   -0.99035465242515
O           0.98206285055723    1.50721795904522    0.04532111375430
O           1.00577624695094   -0.80333517601734   -0.73381944101187
H           2.18845675074888   -1.33229707557956    0.37743689803142
H           0.01231995826131    1.54659056100409   -0.04039092678500
O          -1.44964299178948   -0.58123400086185    1.78059936290137
H          -1.89123037520576   -0.80692503022159    2.60038845133591
O           2.84166927073684   -1.30953394710132    1.10223302041083
H           3.51623170773612   -0.70871415162878    0.76969161938403
O          -1.73649790989500    1.56984049451145    0.24633294507413
H          -1.88370469775396    2.32286440563308    0.82117913091965
H          -1.72477090114927    0.77062635283971    0.82753323691247
O          -1.35167438035159   -1.91592647210391   -0.65442104959537
H          -0.37926370217349   -1.80983131297929   -0.69919636911420
H          -1.56533144326652   -1.62126357504577    0.24637064574560
H          -1.51379754184981   -0.70017881473857   -1.62957291843993
O           0.97808210123760    0.08267909697883    2.40979133797648
H          -0.48703092738766   -0.41396624964872    2.02656371187113
H           1.67263236824169   -0.57052219282414    2.16722239023585
H           1.11702214515574    0.79957189091055    1.77280790781424
N          -1.48704359531733    0.23653862072014   -2.15340920129292
H          -0.43093268335431    0.51863267053691   -2.30094205733465
H          -1.90254022026253    0.94279272716868   -1.53989124812962
H          -1.97127383373827    0.18415283324259   -3.04295883082371
