    26
        -50.45720839  Gyration_radius:  2.51189132423 Dipole_moment: 6.175
 S           0.29681383053048   -0.57410444271761    2.15661168568297
O           1.40786066496094   -0.00953004197037    1.36006429257116
O           0.33050818489644   -0.15763142853931    3.51875471268655
O          -0.97649898170279   -0.20202430633995    1.48750680147806
O           0.41224828516100   -2.12497953016723    2.07825261229117
H           0.37163364683734   -2.40735773061524    1.13100692843054
H          -0.69093802204175    1.34357087229664    1.39716483455178
O           0.14589343074581   -2.92348933545436   -0.43392993187011
H          -0.19199094452220   -3.81947530246041   -0.39411277357136
O          -0.10444478451134    0.57997323637718   -2.32417638079165
H           0.09195567954066    0.53576741809985   -3.26107331650343
O          -0.48933896056611    2.97651381751314   -1.23308245208238
H          -1.40437822430629    3.18296498321883   -1.43173366161180
H          -0.29702203610062    2.12008874980723   -1.68453352871737
O           1.76157042596347   -0.75341767531149   -1.12913967604519
H           1.46279452624052   -1.67117595761287   -1.08834323867169
H           0.65705971124796    0.10643804095223   -1.86484928070509
H           1.74964136463319   -0.44900415117396   -0.19212219235495
O          -1.71998989482407   -1.17454346266227   -0.85517254433007
H          -1.59474273736218   -0.80555167590804    0.04699576252726
H          -1.32529459531157   -0.52342220286766   -1.45671477003706
H          -0.63079974019219   -2.33322781968838   -0.67222720312993
N           0.00568956294804    2.14029715784881    1.25166298413019
H           0.87958210949105    1.54698451160922    1.25592797806175
H          -0.00051235279401    2.79918663239494    2.02295108158403
H          -0.14730017921595    2.59714965440334    0.31431126691897
