    26
        -50.44561590  Gyration_radius:  2.55939575312 Dipole_moment: 7.371
 S           1.86409011253313    1.15284652673829    1.33811499801860
O           1.97548531202856    2.00663460675208    0.06483387806588
O           2.28618417957260    1.90526570244125    2.46012150082125
O           0.32286194701321    0.85260692452774    1.42797728892616
O           2.47577894155875   -0.13362502941662    1.13087205220627
H           1.99150776708564   -1.15612299561204   -0.02023507875294
H          -0.18226694754602    1.69956576412020    1.25400404109697
O           1.72084030834464   -1.66066332965262   -0.82881802525135
H           2.54092121272276   -1.94243635577186   -1.23864499632659
O          -1.84609640075545    0.97521681051814   -1.18055927714896
H          -2.56770733473818    0.83323947114151   -1.79376562636411
O          -1.22174909155696    2.79047401722939    0.73005121520363
H          -1.98931254162301    2.81335391544939    1.30598118321483
H          -1.49306923360940    2.32451676611721   -0.08637192150823
O           0.81620138288950    0.70100072336343   -1.77772064714372
H           1.55140559401215    1.51980955977224   -0.72644138772936
H           1.03511102702910   -0.22693046283359   -1.55544680420357
H          -0.14234513290609    0.81457537918279   -1.63418604299904
O          -1.90637653472689   -0.72919526286043    0.76431916593005
H          -1.93350706678191    0.28092916650091   -0.45810455642119
H          -1.59277901889491   -1.61136779576071    0.43568762245027
H          -1.16460186696129   -0.37066222084697    1.26877989097198
N          -0.80258555183148   -3.00866757022617   -0.13852204748879
H           0.10818443501773   -2.64608318737393   -0.41335523626374
H          -1.19328696700785   -3.50238342980601   -0.93089592781460
H          -0.65288851085734   -3.68189769372440    0.60232472850450
