    26
        -50.45335477  Gyration_radius:  2.50760327731 Dipole_moment: 8.516
 S          -1.70030149463710    1.76081802108997   -0.29739107767227
O          -0.32679043638345    2.29551967377034   -0.11318168895445
O          -2.56689151886813    2.65249396499216   -0.98377461243499
O          -1.58575238476083    0.42630735102285   -0.93493833732136
O          -2.26605978901200    1.50823156630930    1.13670509289800
H          -1.74631399421164    0.78515238726978    1.55635601388074
H          -0.24633853943059    0.39627510549328   -1.73469367711242
O          -0.98543442613002   -0.53524547237303    2.27314276249833
H          -1.53575867166131   -0.81225707948479    3.00705802241140
O           2.49717482275497   -0.40121743692637   -0.31076884590358
H           3.43288735291372   -0.23667525339253   -0.18972218742290
O           0.99244487567865   -2.64420397172319   -0.83421073665394
H           1.58522170313583   -1.90549645966675   -0.61391759113971
H           1.38696710527286   -3.43804978556460   -0.47092910705830
O          -1.47505043438491   -1.97733072465178    0.19677532812140
H          -1.15901753500660   -1.18631488992796    1.52354638502806
H          -1.70536995426772   -1.17916613388709   -0.31914941112588
H          -0.65960956417440   -2.31553282445433   -0.21541651077201
O           1.22439376276935    0.90067086934287    1.50630859775393
H           0.67810802882540    1.54031832471780    0.99422027495090
H           0.58236453753066    0.34564946281276    1.97389236731900
H           2.03107861238732    0.07108375762458    0.45214532986053
N           0.70244337463008    0.85785477180524   -1.91632532378947
H           0.52025015550343    1.69849482712001   -1.27889197739049
H           0.84776804004696    1.09990706600360   -2.88934104584632
H           1.47758639149027    0.29271289266618   -1.51749806413160
