    26
        -50.45282445  Gyration_radius:  2.42231546134 Dipole_moment: 8.175
 S           0.41441804621790    0.46452145270255    1.90476720223778
O           1.52369189896284    1.10614830039618    1.23662264207006
O           0.35055442652185    0.53637221410700    3.32287447626977
O          -0.87642326557401    0.88776616448787    1.26829192630590
O           0.49647541200882   -1.08941757235973    1.54415227149139
H           0.79516297400728   -1.18093231514805    0.60999055066743
H          -1.14282926672893    1.25752416164278   -0.28299864531652
O           1.19548076103307   -1.52890847044664   -0.96535627488176
H           1.69189129779935   -2.34670674545785   -1.02622780463422
O          -1.36580533817969    1.35372421688017   -1.24441140898243
H          -2.01231750743879    2.05841597495515   -1.30221298027261
O           1.24752903720449    2.42380760952200   -1.18952304685302
H           0.37826926215769    2.10531094044563   -1.46887390801606
H           1.30323964425180    2.22068060249465   -0.24059363492229
O           2.94022246989046    0.34990666742189   -0.95722462331808
H           1.87962855407753   -0.78830868800521   -1.07310674261926
H           2.54204104616734    1.12789219115498   -1.39624649596654
H           2.81323306698314    0.55728137128546   -0.01546954575015
O          -1.51153305909483   -1.34581133720408   -1.39380431672190
H          -0.55531330854904   -1.52929624567811   -1.38796152896229
H          -1.98497301091070   -1.44350371534255    0.08945030391506
H          -1.56550939362282   -0.38526387120441   -1.56718677964103
N          -2.14696336463193   -1.27928670767596    1.14231311947910
H          -3.12828611593502   -1.31235734801527    1.39719508538340
H          -1.68969899949133   -0.28343704846783    1.30839549268370
H          -1.59218526708660   -1.93612180259119    1.68714466646399
