    26
        -50.44364334  Gyration_radius:  2.4927466428 Dipole_moment: 5.404
 S           0.39735431700307    0.48064767459856    2.24566542552921
O           1.64954194058461   -0.04537026459313    1.77925065252566
O           0.34233881933069    1.06825655279993    3.53200547291887
O          -0.11684713117625    1.50146022369746    1.16661992750847
O          -0.68517024303440   -0.62305095030659    2.13614209348173
H          -0.38628260377497   -1.31611927581730    1.46811332554133
H           0.67621307652352    1.87927125675279    0.68253779359161
O           0.08903934635572   -2.44358961902919    0.47810106204436
H           0.54519482830869   -3.09990660940212    1.00854366539231
O           0.80745626856002    0.84087880080367   -2.25093243490253
H           0.75455766142988    0.83680487556454   -3.20703209740552
O           1.73965160517971    2.46949315584073   -0.32930598654536
H           1.55696907395250    1.91454573213925   -1.11675930999931
H           1.51898015041209    3.37289126000432   -0.56570469447480
O           1.97727351560213   -1.10548650119887   -0.66709381753176
H           1.64048265864665   -0.44558487554806   -1.29585196481634
H           2.12923173992834   -0.63305194003302    0.17216916757632
H           0.80746457529528   -1.98962835055913   -0.06011843155980
O          -1.55892573852142    1.03814027615433   -1.20099600547748
H          -1.31443073870377    1.37791218426861   -0.33001812902923
H          -0.13475693228612    0.88388731516798   -1.90994818082683
H          -1.98458317023595    0.16375053915790   -1.01500415034541
N          -2.55841512085818   -1.30685092782871   -0.32991707729677
H          -1.78086945834357   -1.95860885816596   -0.33433506310332
H          -3.37211265273588   -1.78405779549390   -0.69666623542148
H          -2.73935577743404   -1.07663386894952    0.64053498265969
