    26
        -50.46919483  Gyration_radius:  2.46724574126 Dipole_moment: 3.370
 S          -0.75468468128066    0.47351250595447    2.22779108835418
O          -0.60696958781313    1.44782675905529    1.15394304020290
O          -0.71274321027016    1.01126174884362    3.54734597178743
O          -2.21790844620675   -0.16227487271137    2.04913830235898
O           0.14510813066384   -0.66515808506723    1.99117899414699
H          -0.63581392095282   -1.49006865210289    0.81704920258026
H          -2.68036558014625    0.29367943245625    2.74283270009087
O          -1.06756072025981   -1.93508802183422    0.04912610623341
H          -1.74566030368940   -2.49907902844609    0.42326341096082
O           0.17089569716619    0.79920799356556   -2.56787027817562
H          -0.10339534590222    1.14026535252200   -3.41919505262901
O           1.45045445314615    2.04613099512847   -0.46814929461899
H           1.06435436980928    1.78824009994702   -1.32554056223556
H           0.69830081568141    2.06262738157733    0.15589506780328
O           1.07580445876896   -1.63345944285723   -1.68730205223175
H           0.79852591374348   -0.84023127044580   -2.18340358299584
H           1.88577921545173   -0.95072621610174   -0.48909979934718
H           0.28174412801108   -1.94024514626781   -1.22006174181061
O          -1.85312004742300    0.49406701689371   -0.97209869810416
H          -1.80124370472501   -0.44572323200969   -0.72848417897855
H          -1.51811240258110    0.96245108380558   -0.17923663641342
H          -0.66099528932548    0.71798391956805   -2.01307051531256
N           2.16953205452135   -0.33471557563020    0.33073744493143
H           1.45468734370638   -0.48409169701036    1.08927631665118
H           2.05805323181698    0.68269513628575    0.01532591661354
H           3.10533341811997   -0.53908820509769    0.66060883015748
