    26
        -50.46919477  Gyration_radius:  2.46723436534 Dipole_moment: 3.369
 S           0.94730640152613    0.83407437048272   -2.04054150111445
O           1.69729492019428    0.32906569992702   -0.89741512552593
O           1.66450509274010    1.72202656474673   -2.89447528675717
O           0.58391612413097   -0.45013728657385   -2.93258630214333
O          -0.36530337555804    1.32436624854827   -1.59467257064439
H          -1.19662274254850   -0.06292747806843   -1.36293936921709
H           1.22165517214286   -0.35086154083477   -3.63004869558059
O           0.34570299342523   -1.43213626419568    2.25650023524240
H           0.59758683672419   -2.16015187533180    2.82476602463141
O          -1.66359641644814   -0.90378272384904   -1.14154238506806
H          -2.02147056890808   -1.22790634305651   -1.96901958097983
O           1.63317277551240    0.94556492571759    1.71752026046041
H           1.88969934836287    0.75232775188720    0.79435411163042
H           1.32498133490153    0.09438124601688    2.07966491876644
O          -2.04963834406576   -0.30872205374156    1.54144848217480
H          -1.30410573220782   -0.79215974537672    1.94485013293289
H          -1.35823350338747    1.10844011017355    1.27437773932458
H          -2.12304730466632   -0.65024890151188    0.63542952241742
O           0.68360839665618   -2.02310175668939   -0.24797306810527
H           0.51179881430558   -1.73603640185361    1.31495733466641
H          -0.19964489103242   -1.88083940643055   -0.62864455712380
H           1.19570811086219   -1.24061710184399   -0.54076606172903
N          -0.68916285497054    1.87600165125229    0.96563323093169
H          -0.57981923331497    1.78715265345715   -0.07788099602204
H           0.26962970972349    1.64698489948805    1.38421853338812
H          -1.01592104408299    2.79924276765092    1.22478497348322
