    26
        -50.46862852  Gyration_radius:  2.474750397 Dipole_moment: 4.021
 S           1.06882832666103    0.33947292291865   -1.94592315808742
O           1.66711737756901   -0.33895139250073   -0.78351085975120
O          -0.27287830765189   -0.12059326627479   -2.17873701961971
O           1.22346726036505    1.77687168698144   -1.86162842830921
O           1.94639330324800   -0.10943657307550   -3.19124660385466
H           2.63293346344570    0.54904025030023   -3.17909828602330
H           0.11524658771138    2.17594347560598   -0.76513511985474
O          -0.11998771448556   -0.66610789909887    2.64356762130059
H           0.08197599918462   -0.73852621071424    3.57652895703933
O          -0.49644253420612    2.38977123394079   -0.01835446335758
H          -0.91932905064719    3.21832190688839   -0.25071013533239
O          -2.13300477985251   -1.48415286737397   -0.84466338729772
H          -1.66177155177534   -1.00375270454931   -1.55100121887506
H          -0.88813132746608   -1.97264030939080   -0.15432366375555
O          -2.18032051489381    0.43598552525981    1.00222098810423
H          -2.39386029385873   -0.78175853646449   -0.20400341047427
H          -1.63488801164108    0.07833579116657    1.71577596583048
H          -1.65424285959672    1.14802363563966    0.59947067425078
O           1.41257186871631    1.07920761659594    1.48044790511866
H           0.49805634066301    0.03110928515510    2.27180918730450
H           1.67822892485678    0.60368451655117    0.66832263446219
H           0.80754033804252    1.76904564304590    1.16774877492973
N           0.07716691632697   -2.10065285373408    0.34027308593076
H           0.75514741931316   -1.46005006455432   -0.16340734103530
H           0.39717161056652   -3.06156008509787    0.30973112594902
H          -0.00698879058391   -1.75663070723923    1.31584615538932
