    26
        -50.45712028  Gyration_radius:  2.4382583642 Dipole_moment: 7.254
 S          -1.25482740494489    1.58860864896428    1.26190476383564
O          -1.49437368424238    1.48187505986287   -0.16661257360838
O          -2.29859310204490    2.14137863296970    2.05020813348730
O          -0.77926356957524    0.26913907591770    1.78744754612890
O           0.04503576895607    2.50105432462020    1.38133412138203
H           0.46266578705889    2.32953818851463    0.52305458834340
H          -1.19608454293007   -1.14865505782351    1.14365014422794
O          -1.33624602694498   -2.03712070372146    0.72253386650978
H          -1.87684572185848   -2.53765511411829    1.33449746002982
O           0.61300071752057   -0.46417653656893   -2.23806297208903
H           0.70178741231888   -0.49477001092599   -3.19106377326203
O           1.36257024446271    1.75495705195260   -0.90580059292463
H           1.02796140632267    0.96569318353259   -1.39413113179742
H           1.14180320659122    2.50990675106750   -1.45353978631557
O           1.22851094211955   -2.18369556943786   -0.22090782711706
H           1.11115402695847   -1.72403317340035   -1.07352628446442
H           1.64669941424934   -0.97462308266750    0.67593411829799
H           0.32233919686083   -2.35376934250011    0.09966561218210
O          -1.86406076847718   -0.65579918083720   -1.61243532009628
H          -1.88854054305271    0.20369037589221   -1.13001157153803
H          -0.38120847111107   -0.54210891391760   -2.04650588260218
H          -1.87605696810272   -1.32498389026933   -0.91028321216415
N           1.68231528210385   -0.04955178099940    1.21965579900227
H           0.65091316864048    0.12526377600026    1.54587119955503
H           1.93742942386256    0.71054289765118    0.58409873651256
H           2.31191480526204   -0.09070560975951    2.01302483848208
