    26
        -50.46862854  Gyration_radius:  2.47479125064 Dipole_moment: 4.025
 S           0.39213592991803    0.21454585965341    2.20123770815637
O          -0.95076621602209    0.22986318242562    1.59634321075457
O           1.19818342503286   -0.83713777619510    1.64405834843151
O           0.99736017301231    1.53012400713282    2.18801949099691
O           0.15799902558933   -0.12945014393737    3.73402409239770
H           0.01962586608693    0.73878867402542    4.09769620677978
H           1.43737825432925    1.68790013867013    0.64812492737599
O           1.60757081002484    1.80914732062916   -0.31824675956150
H           2.45052788045841    2.26122410433550   -0.38443456381966
O          -1.56542229922321    0.12414628898523   -2.23236878091016
H          -2.20289748455366    0.41437033460290   -2.88491051023959
O           1.11907396715131   -2.44614339499607   -0.47775157429319
H           1.39041427774689   -2.02710807222810    0.36050306763754
H          -0.34167102987575   -2.11588945374828   -0.33205019617909
O           1.25161104422629   -0.31299450404467   -2.06909902633037
H           0.33428816355153   -0.17474287188553   -2.34098924225987
H           1.45721618256901    0.41283788624011   -1.45522092757204
H           1.35422700689781   -1.78378646884993   -1.16899251473154
O          -1.14338436207068    1.96102195654865   -0.44498606204969
H          -0.20727801450233    2.19217729684495   -0.54498804340483
H          -1.44657750882606    0.88684235428152   -1.59155836607520
H          -1.17809360010698    1.44532448377462    0.38516138682448
N          -1.32298318421970   -1.65764320924100   -0.19063079690322
H          -2.03452764731385   -2.34221058774056    0.03689584942431
H          -1.56335850038183   -1.12743220039388   -1.04984022320877
H          -1.21065218948322   -0.95377520488643    0.59400329881822
