    26
        -50.45720847  Gyration_radius:  2.51167790542 Dipole_moment: 6.171
 S          -0.48063037555158   -0.60158514400052    2.11475024020412
O          -0.23999603850424    0.81429215936277    1.76102803969010
O          -1.47131364165436   -0.75384355014019    3.12724867832772
O          -0.83628716314225   -1.32712569715742    0.86806182606548
O           0.87235389207649   -1.19151727111931    2.61092443344589
H           1.55222241628319   -1.09340898429968    1.89897456235127
H          -1.98744292385724   -0.35421779059995    0.41265968166535
O           2.66941626901754   -1.08981821644147    0.66697228500177
H           3.29354225475303   -1.79531467183578    0.84387550614097
O           0.61211543044236    0.81256202821385   -2.17107453612828
H           1.15690454880720    1.21463164059618   -2.84918546024897
O          -2.00775802795822    1.27759010483836   -2.22505541588634
H          -1.02614092635363    1.17495379378426   -2.23231580326192
H          -2.34633330934798    0.64861055328633   -2.86467649264199
O           1.67896383902849    1.45827358704459    0.09444110201339
H           1.00294582654585    1.11618026247637   -1.29346011121081
H           0.97150119918170    1.32987817079952    0.76812226637209
H           2.33143189035821    0.77534057945635    0.29727231065337
O           0.88566402863520   -1.75700298052098   -1.09076056870004
H           2.07117243357088   -1.41328558421277   -0.07197101063453
H           0.18100282153548   -1.72991731213343   -0.40627295307540
H           0.75181101242449   -0.96129216944301   -1.62978622609436
N          -2.37254502725955    0.63954941027940    0.33971025999577
H          -1.62967104984656    1.10668803289855    0.92775563205575
H          -3.29079324061964    0.72592368966770    0.76207883178185
H          -2.34213615857898    0.97385535918560   -0.65931708788194
