    26
        -50.45720848  Gyration_radius:  2.51167230612 Dipole_moment: 6.170
 S          -1.93110428757508    0.85404957152948   -0.77868952125290
O          -0.95997597790709    1.70244392963758   -0.05421244317033
O          -2.60331867892713    1.55589884132195   -1.82048521918659
O          -1.20384870435370   -0.33874229950262   -1.28415309050503
O          -2.96821377115279    0.34287052833186    0.26431243182360
H          -2.49625179736803   -0.15397808213365    0.97785096653018
H          -0.04854612315997    0.44626294131070   -2.01081945456461
O          -1.75209153151335   -1.12904455093171    2.10092756036053
H          -2.41413817684382   -1.73414512622759    2.43871533187284
O           2.05608018309313   -0.75284154105933    0.97687391722839
H           2.69127437345009   -0.95867429950303    1.66421009362546
O           2.96804278443236    0.22376111003533   -1.32475081453524
H           2.68623503657381   -0.10172854400970   -0.43660806803854
H           3.24404697259884   -0.55112616248835   -1.81741010006346
O           0.28287062136496    0.78400097835665    2.06386987116199
H           1.40246469592564   -0.11006444672344    1.39489888651789
H          -0.16699986392267    1.24181305668890    1.31629021974682
H          -0.39536062422021    0.20444926075257    2.43450524559691
O          -0.23470578351761   -2.21685544938548    0.30347621244233
H           0.65386441989819   -1.86809260243223    0.47793024283862
H          -1.17283267484776   -1.65725878695621    1.47322604566110
H          -0.61305291399935   -1.63181361158005   -0.38961061482612
N           0.62172993968418    1.27779499447244   -2.03320747658017
H           1.60711418872703    0.96191626356422   -1.83322524130557
H           0.20674495037193    1.79707977058858   -1.21224298129415
H           0.53997275317517    1.81202427630919   -2.89167199009197
