    26
        -50.45720847  Gyration_radius:  2.5116657661 Dipole_moment: 6.170
 S           0.65663363147487    0.91723028474015    1.94740113722828
O           0.56801752612338    1.72893947778642    0.71411363405538
O           0.29630175360567    1.65064958220536    3.11447451502337
O          -0.18987570452191   -0.28903777142460    1.75907549740867
O           2.12781370225558    0.42228723658544    2.07156887658032
H           2.36739093240632   -0.09623667390855    1.26380968714751
H          -1.49994488028223    0.47224888260793    1.33127113341329
O           2.74522224448484   -1.10550352889604   -0.00287226111304
H           3.43764942799513   -1.69602675918979    0.29776636670670
O          -0.58822892273667   -0.82202285374347   -2.17397629170465
H          -0.47716628145717   -1.05438956500534   -3.09698607961562
O          -2.93837933651453    0.15712173288700   -1.39864235125766
H          -2.07755750090045   -0.17121618963443   -1.75263311905439
H          -3.48523746635281   -0.61909769962283   -1.26513122608321
O           1.37717287067843    0.75019516867377   -1.57975967825125
H           1.09769559816889    1.22958455625807   -0.76557255846408
H           2.10478943813020    0.18525641624183   -1.28879919609509
H           0.14875216853937   -0.16644102479687   -1.96851829570885
O           0.40260469564036   -2.21283726111379    0.04591160834084
H          -0.04578243066647   -1.89118205103819   -0.75227464443684
H           1.89631841420339   -1.64184458640703   -0.01889573376575
H           0.11703841016426   -1.60894718067732    0.76672216342329
N          -1.96011791871858    1.28490799356875    0.81254237749460
H          -2.56374974450976    1.83181618807016    1.41716073324769
H          -2.44621776266976    0.93919214016932   -0.05632206063031
H          -1.07114287454313    1.80535350568552    0.57856575611243
