    26
        -50.45106538  Gyration_radius:  2.37032763571 Dipole_moment: 7.548
 S          -0.27373557806943    0.38988923478577    1.92614797843476
O           1.01018282230120    0.20979218901419    2.53950153659913
O          -1.17310053795446    1.38043313054537    2.45035692857801
O          -0.01136329390580    0.83889606851011    0.41210731025249
O          -0.99200081402039   -0.89973994038498    1.72265228377580
H          -0.47664521182927   -1.93982873067596    0.62508228977440
H           0.67529065063718    1.53864713539305    0.35815754500705
O          -0.18604991728503   -2.51483667218197   -0.13009929638455
H          -0.39537331358381   -3.41542328746206    0.12042890517440
O           1.69040881573992    0.32507698773153   -1.83188256237737
H           2.29437306483455   -0.05009442514724   -2.47466078041471
O           1.73454511602381    2.64029854554617   -0.41766218415556
H           1.25529945172152    3.32552916341847   -0.88663058172494
H           1.89872049689674    1.92159426046483   -1.05840974339935
O           2.14513148783252   -1.02774637446040    0.38938972663221
H           1.87545423658217   -0.15417318782238   -0.97665626975062
H           1.87418118208601   -0.57632114512557    1.21201829158967
H           1.49503384081073   -1.73110795502174    0.24531889196153
O          -1.01768960711122   -0.49368668476026   -1.83120229700264
H          -1.97609209599208    0.13037498532463   -0.74366912207093
H          -0.17501261448122   -0.00450087147742   -1.85461794572983
H          -0.77643903126910   -1.33471034654606   -1.40323089386738
N          -2.54484640559423    0.32948010750188    0.15201261193524
H          -3.54074015585111    0.16584618804443    0.04395381059291
H          -2.34331248561141    1.25961406939846    0.52456647146645
H          -2.06622010290779   -0.31330244461412    0.88702711510478
