    26
        -50.44630545  Gyration_radius:  2.69379977186 Dipole_moment: 7.795
 S           2.35430835306970    1.87936797870986   -0.37218671143300
O           2.47117463235532    1.20906486297269    1.01413713457299
O           3.60842938143669    2.42685557590961   -0.72625532124450
O           1.79093759048706    0.90837114000324   -1.29902182052860
O           1.28662707663521    2.97405681054578   -0.14192498011542
H           0.55053557357823    2.85015408771608   -0.82739438662378
H           1.35666098044297   -0.66772984590568   -1.10616809327240
O           1.06392262977455   -1.56060926524498   -0.81000442847579
H           1.82324971721711   -2.13588075848294   -0.91168785113738
O          -1.85955410963335    0.78836804076037   -0.13388862201619
H          -2.75578482901453    1.03062016411752    0.10061679050572
O          -0.44036777561109    2.28577722945675   -1.87654943589940
H          -1.06668649475645    1.79152108942019   -1.30782957819387
H           0.21045495236407    1.63536651907508   -2.17654481454070
O           0.26850339194807   -0.08894343351252    1.34555440246960
H          -0.47638281096340    0.39893001776981    0.94600088531094
H           0.50290510199386   -0.77382938953799    0.68935998515938
H           1.60463212061064    0.74959234752238    1.23521100307526
O          -1.73590416503323   -1.72353112113243   -0.77518996896008
H          -0.81026457444002   -1.81663055244901   -1.04191505582345
H          -1.78009821062558   -2.10155469705971    0.13344940240101
H          -1.89510940711526   -0.15615460430991   -0.47215409812613
N          -1.57507674676668   -2.44660147650269    1.86258434394948
H          -1.11282894287679   -3.32908934595761    2.04204926450773
H          -2.42045622199813   -2.42291721345200    2.41863348135716
H          -0.96382722312839   -1.70457418037930    2.19111846316733
