    26
        -50.45019001  Gyration_radius:  2.49751704961 Dipole_moment: 5.274
 S           1.03247742037612    1.12655161157655    1.87285003608900
O           2.04812688279856    0.94129857575852    0.86070363820977
O           1.28997313082549    2.07907273727394    2.88539797601528
O          -0.29948540693049    1.45338019240251    1.12374479926305
O           0.69813815823649   -0.22878788699115    2.52703737436183
H           0.58103247172113   -0.94616181793967    1.83390449309239
H          -0.02780825379876    1.82113195734935    0.21343367132637
O           0.33794032923297   -2.12797186441347    0.82064652755038
H           0.03213833600966   -2.89689063887245    1.30444340158168
O           0.40643494821380   -0.14049434830851   -2.43498061308507
H           0.62305551998838   -0.27250841717991   -3.35866780035206
O           0.66000937344470    2.18466946464611   -1.09864928645468
H           0.48000272916461    1.42533214027759   -1.69530402753335
H           1.54075718385620    2.02588566308765   -0.73016076070755
O           2.26618114982456   -1.09593353281259   -0.87174863374739
H           1.15300655956294   -0.54765345862982   -1.90719089174464
H           2.38918243367156   -0.34671144020005   -0.25859222473339
H           1.80046348417507   -1.76107453479648   -0.34574918785690
O          -1.46450164361717   -1.48345843367656   -0.88373414130324
H          -2.07447846359596   -0.82809041782697   -0.46339169071937
H          -0.95687556943263   -0.99101501330687   -1.54952537037773
H          -0.39960050769160   -1.89562240093105    0.16046465950213
N          -2.94133192209131    0.41058074352981    0.35485181931778
H          -2.16962308748513    0.88693667281190    0.81332007322733
H          -3.59912138490906    0.12415791307377    1.06871359400386
H          -3.40609387154648    1.08337652409656   -0.24181743493441
