    26
        -50.45442141  Gyration_radius:  2.4296586456 Dipole_moment: 8.079
 S           0.95743533909970   -2.02476153177425   -0.58792953089628
O           1.66203507228031   -1.38140728964499    0.53155718179329
O           0.84815808036443   -3.43841203458896   -0.47071007461219
O          -0.50546496335240   -1.38144137747072   -0.52440401176803
O           1.45779535121322   -1.53580607661952   -1.88092933267624
H           1.03335911412057   -0.20041146616697   -1.92439560909005
H          -0.62976813654402   -1.27248749754609    0.45310839328528
O          -0.58074446842903   -0.97390552289379    2.04017006919724
H           0.31512187426774   -1.33939966638630    2.03313009635298
O          -1.67494022597113    1.48942844361000   -0.64084014535097
H          -2.34825216460341    2.10089102229403   -0.94268208783115
O           2.25593053996592    1.08579219248876    0.41421997656548
H           2.06120062002638    0.09562915938591    0.48382324864183
H           3.18409484985777    1.18127192628578    0.63009351408350
O          -0.13080752311924    1.62845865708256    1.70477834060774
H          -0.68597037808659    1.76328694813666    0.92207480596444
H          -0.45393894606359    0.00666218330742    2.08822549096671
H           0.78286590087196    1.58105003943926    1.38044281164403
O          -2.99128718055195   -0.55939501875193    0.43794529434101
H          -2.71810890702030   -1.28938289778465   -0.12757732238020
H          -2.56798749673037   -0.71659911573269    1.29139846914775
H          -2.16284878585887    0.71126117370999   -0.26821408449566
N           0.77143675535039    0.88409733216375   -1.81301827445406
H           0.91470678929393    1.38556139253919   -2.68260240748079
H           1.41099859716742    1.21980734734152   -1.06534054729704
H          -0.20501971754895    0.98021168761499   -1.48232427426118
