    26
        -50.45442138  Gyration_radius:  2.42953764918 Dipole_moment: 8.079
 S           0.55979479096298   -0.65357457437042   -2.14943252784092
O          -0.89019828492401   -0.71635551796055   -1.91024647005085
O           0.91545520341857   -0.19240951742525   -3.44744889242324
O           1.06976967958170    0.40304086955016   -1.06254658438574
O           1.22309363514158   -1.89197570485090   -1.71628641195811
H           1.10091950361827   -1.87025064784747   -0.31967241842151
H           0.30539110465483    1.03349332559372   -1.02788532019893
O           0.95600391804370    0.64199749566301    2.02684955463504
H           1.37144354586980    0.87259389678609    2.85908189075588
O          -1.09700707474897    1.83117455738232   -0.94294285377278
H          -1.44292317486234    1.19508825462942   -1.58487741676579
O          -1.78482139807552   -1.79123657057491    0.21050561958623
H          -2.45785411751273   -2.42628332614749   -0.03634972040110
H          -1.46587848257185   -1.38197765322277   -0.65781794194015
O          -1.77868490812322    0.71766659522697    1.37739081662302
H          -1.96407304149969   -0.18138866774432    1.06175349418495
H          -0.89639493814155    0.68451227532323    1.77670095830050
H          -1.47466754891635    1.54499289193234   -0.07389388904969
O           1.31544624220561    2.74546296975093    0.43230814221474
H           0.44871604159699    2.92774345625876    0.04786754697953
H           1.11700636604027    1.41004657863260    1.42143805865232
H           1.84231549907760    2.36670061051421   -0.27910866015092
N           0.83996526456299   -1.83462929374406    0.77007952870758
H           1.03895963187489   -0.89263832482561    1.15091877318816
H           1.33603498103536   -2.55145547055317    1.28803038747888
H          -0.18781245831591   -1.99033850799575    0.78558432606592
