    26
        -50.45442141  Gyration_radius:  2.42953179949 Dipole_moment: 8.079
 S           1.28492197860927   -1.91967039638049   -0.15576695736146
O           2.08372191257344   -0.69994363717656   -0.35025451116425
O           1.94760987378701   -2.93635588874815    0.58670478858187
O           0.02000681003062   -1.40599829851837    0.67726944784392
O           0.67079434963277   -2.35846747392726   -1.41735508582662
H          -0.27715611403613   -1.36379695075375   -1.69564877180332
H           0.42968850902054   -0.70148876241576    1.24179990645831
O          -2.20424172601169    0.71352331539986    0.25632251779321
H          -3.12083296364658    0.98295167437418    0.33080851891650
O           1.20757504870040    0.53974088249379    1.92309580643609
H           1.98656258252482    0.26778548572305    1.41770737689174
O           1.24856101393249    1.13603803845568   -1.89465029256027
H           1.62580415276750    0.41377445366322   -1.29529866265804
H           1.95442579341579    1.36155657744499   -2.50137847658961
O           0.08912241097128    2.33875863336921    0.31104425090647
H           0.55161307440221    2.11003118973198   -0.51115876406640
H          -0.78941983858495    1.93513950388411    0.24505839895594
H           0.85443404648809    1.32814999597730    1.43971433661868
O          -1.52272381769776   -0.19996686239030    2.66371519563263
H          -0.68362563828496    0.22912477235321    2.87363000535963
H          -1.95780470781276    0.34296304480009    1.14194783626273
H          -1.30576783312534   -1.11835372829575    2.47261507091814
N          -0.90866544723196   -0.46116093181014   -1.90426814938785
H          -0.21589188559243    0.28387709211903   -2.11820415595081
H          -1.43341369193700   -0.19206355073497   -1.05326042097485
H          -1.53529790290950   -0.62614819866028   -2.68418920927007
