    26
        -50.45061096  Gyration_radius:  2.47871733204 Dipole_moment: 4.877
 S           1.23549205885327    1.15003069442982    1.70645930559529
O           2.01597245765291    1.53286913196639    0.42853215525317
O           1.22147569261345    2.26061331868184    2.58475796550116
O          -0.20406147090657    0.87239037525209    1.15778031129106
O           1.69995351821554   -0.11128389960928    2.21596432663113
H           1.22299664691845   -1.38301233115779    1.33692073320045
H          -0.37354519059906    1.53676490022718    0.41732237661318
O           1.04523398807524   -2.10517144844482    0.68375472625714
H           1.44304575160089   -2.89728718222650    1.04883234646720
O          -0.20249807112960    0.15832484403741   -2.38959470029153
H          -0.50767014363410    0.03081326406492   -3.28842696173263
O          -0.35872163707721    2.38254942045247   -0.89158500788805
H          -0.35532341734428    1.65142431639679   -1.54868654042580
H           0.53371989263552    2.74247787077870   -0.87592507550307
O           2.13325489191069   -0.43896093656547   -1.14213903979304
H           1.39267132126055   -0.23511645552031   -1.74621488768442
H           2.14732806047549    0.72024346990677   -0.19163778588460
H           1.82785470255390   -1.18662871581144   -0.59007107086661
O          -1.22874355456969   -1.68378945782358   -0.90909669759125
H          -1.90228681763991   -1.28876346048041   -0.30625589783666
H          -0.65934152229126   -0.55097369430501   -1.83350118546922
H          -0.49776744100157   -1.95089854511658   -0.33093818784460
N          -2.82924171331042   -0.46337598216958    0.91109965560045
H          -3.50350073733688    0.22271390560854    0.59669450637147
H          -2.03869232038173    0.03843216914276    1.30454459126703
H          -3.25760493551987   -1.00438558172049    1.65140999875355
