    26
        -50.45061091  Gyration_radius:  2.47890813669 Dipole_moment: 4.878
 S           0.83503928001506    0.38118414654378    2.21828594975165
O           2.00708043655317    0.87907096760001    1.34270089731297
O           0.73008007747114    1.21237490028726    3.35974609930319
O          -0.40244381438292    0.58518229532396    1.28133205731341
O           0.93099190776589   -1.03872814255145    2.42033175695141
H           0.54950351817746   -1.91096975329164    1.11240176525949
H          -0.24234441897449    1.43160751078184    0.75599546704593
O           0.46652393652645   -2.38947267854939    0.24990737811593
H           0.61463372099906   -3.31626540633570    0.44503467375268
O           0.53756900136610    0.78441592467075   -2.20792281298911
H           0.49702161076619    0.95384577991222   -3.14965256743032
O           0.28732496611717    2.54663105413261   -0.19614670316724
H           0.37245161206040    2.01895453491298   -1.02114585028841
H           1.17950135099491    2.67667636650242    0.14047536853191
O           2.28244414573180   -0.61584977348158   -0.67141320328642
H           1.79250114159222   -0.10642355485384   -1.34629917506448
H           2.19054807065877    0.23722684564101    0.55721259628597
H           1.71904284049962   -1.38722752633715   -0.45991625691523
O          -1.14592006653086   -1.08151570545917   -1.64055422287789
H          -1.89932190320787   -0.70495769676862   -1.12701991872412
H          -0.16499887209279    0.08350810312005   -2.01718801839861
H          -0.66662048418959   -1.64254411205088   -1.01170923951683
N          -3.00793654382832   -0.01841454303414    0.02245492432539
H          -3.70984964374430   -0.61511024737610    0.44134882197869
H          -3.45067593100528    0.85765982217784   -0.22378482015834
H          -2.30214594936684    0.17914089848407    0.72552502288913
