    26
        -50.45331707  Gyration_radius:  2.44703912105 Dipole_moment: 6.623
 S          -2.25424288963718    0.51785886350336    0.03277879485015
O          -2.13068638937096   -0.83017649429266    0.85301356908472
O          -3.23132587111285    1.31062465515509    0.69723796927303
O          -0.87869923601483    1.11594400159065    0.16465849771533
O          -2.48707877835279    0.19248336864344   -1.35721775958051
H          -1.11519402090173   -0.19810149273447   -2.00065749509519
H          -0.38330365391254    0.68012569698546    1.34900450133441
O           1.92287638514817   -1.21982612566888    1.00972943759462
H           2.80108767626027   -1.54777351326354    1.20472660295074
O          -0.26658058075946   -0.57195068109705   -2.37592739533126
H          -0.45802372061282   -0.78445464836980   -3.29060858556945
O           1.17906921079991    2.69058517430913   -0.43398696057096
H           0.96696440363607    3.30279501547580   -1.14023877650279
H           0.34560177422385    2.22969935240855   -0.21502882974075
O           2.06486139325953    0.22049724994632   -1.11551613553300
H           1.28802875610039   -0.03245181468516   -1.64438374946143
H           1.90898962267241    1.15414450339267   -0.86749310052712
H           2.01770407863025   -0.64106379842729    0.18337808270090
O          -0.32074437410629   -2.29128515215424   -0.29459286381202
H          -1.52204204958691   -1.45253106558475    0.36251309141027
H          -0.23753707783614   -1.82483460113416   -1.14953438982272
H           0.49750647160265   -2.10171888841916    0.18999264996857
N          -0.00098317583216    0.14906907475206    2.28768381144042
H          -0.76750282124587   -0.46652582068074    2.55555688535460
H           0.23598402123852    0.80448194535306    3.02380498262310
H           0.82527084570556   -0.40561481500489    1.97110717524699
