    26
        -50.45260136  Gyration_radius:  2.49724547634 Dipole_moment: 5.350
 S          -0.44334540934688   -2.24574848104873    0.24111828991234
O          -1.28493589949539   -1.43550113244540    1.15794064442006
O          -0.99969983064936   -3.52198999337291   -0.04773978146245
O          -0.18153169709754   -1.43151348252713   -0.97002742956943
O           0.93522270621884   -2.43737674129682    0.94834154779604
H           1.32929659667614   -1.55022187422857    1.10370202558142
H          -1.56864855401115   -0.73270358470001   -1.21739166488702
O           1.98098233831476   -0.05364712970678    1.53197961543753
H           2.39479220758789   -0.13169237835521    2.39343549391072
O          -1.27501181815530    2.13940556491592   -0.50915921841339
H          -1.35868858038947    3.06009426227504   -0.75811436022785
O           3.06249450482468    1.07105402655465   -0.71110963250979
H           3.61510493257781    0.40254340062701   -1.11947175074584
H           2.76041239271220    0.69836521673862    0.13755097643758
O           0.60392776304995    0.99261008978788   -1.83985100930180
H          -0.50030238413217    1.76927661361024   -1.04144513038456
H           1.50964725668514    1.17035836857818   -1.51416831882549
H           0.43457561315974    0.05603008485174   -1.62366507687835
O          -0.37330907210829    0.93712963533009    1.85910803306306
H          -0.78223831362221    0.05136392670240    1.72922650870723
H           1.11392230078684    0.43437098260998    1.68126704971408
H          -0.68683271257693    1.48606036169952    1.12315975007757
N          -2.42891888211410   -0.27010446160547   -0.78007324977041
H          -2.25209845513895    0.75527052886189   -0.72887845736514
H          -2.30073087167749   -0.70399835284466    0.18538388400384
H          -3.30408615217425   -0.50943546109481   -1.23111877877062
