    26
        -50.45331704  Gyration_radius:  2.4470521513 Dipole_moment: 6.622
 S           0.72823099256919    2.19477011892734   -0.06276547163295
O          -0.09014934054475    1.99531334786689   -1.40278326986419
O           0.43350605056432    3.50652952438080    0.40284669087420
O           0.14351277097626    1.14492493339457    0.84458712272767
O           2.11458139977824    1.86899609641249   -0.31595595616920
H           2.25831713351666    0.31108013974146   -0.29806234032532
H          -1.13954230587905    0.96528160982074    0.44587622361753
O          -1.60149099655514   -1.73947624449610   -0.78468692442953
H          -2.08157140953917   -2.55999883331126   -0.89912131087758
O           2.32530238855429   -0.68006445267068   -0.41651538680134
H           3.25032787432168   -0.85912146238391   -0.59176990951594
O           0.02280206086211   -0.50581681660613    2.92597927268310
H           0.76192255817220   -0.38197337068305    3.52342930798886
H           0.09435738341728    0.20168352737182    2.25567600466827
O           0.37662539320207   -0.40589821460489   -2.26514598404858
H          -0.35393289436736   -0.94209573011361   -1.92006509751713
H           0.16478617923267    1.11931286069011   -1.81030990780105
H           1.15572027906339   -0.63685102006266   -1.72188333255618
O           0.35812928103463   -2.18057644861050    0.82061538210271
H          -0.85282103569195   -1.94216210032929   -0.13267871238757
H           1.11621489474623   -1.71311972535621    0.42829590588943
H           0.18021445928731   -1.71317252534812    1.66165701641488
N          -2.15402689123945    0.78350441303097   -0.05143076515121
H          -2.13532854928753   -0.21584453326470   -0.35402442383253
H          -2.15100948049535    1.40493809968681   -0.85892765242447
H          -2.92467819569737    0.97983681651731    0.57716351837175
