    26
        -50.45860916  Gyration_radius:  2.40818514819 Dipole_moment: 7.098
 S          -1.00105449860325   -1.59780806846163   -0.53402446337281
O           0.47216486153975   -1.62341828212568   -0.62899968245836
O          -1.50529455649044   -2.31076399902821    0.60099593599335
O          -1.35916717211207   -0.04716438658637   -0.31083491182611
O          -1.59733919443230   -1.86396753685473   -1.82730585905705
H          -0.67481792019515   -0.90955751569733   -2.76539632874364
H          -1.27682029640504    0.22074276164587    0.62975738014641
O          -0.14460946787508   -1.34819910861823    2.74081055281199
H          -0.62613946462340   -1.85369756538562    2.05857710318840
O           1.25671850255987    1.89789963535383    0.75327262754344
H           1.93901611123380    2.47362627790594    1.10073676364609
O          -0.05849067217525    1.92763268290985   -1.67768228625764
H          -0.83882939575770    1.52229514132953   -1.27060413648223
H           0.56520064170694    2.02301470523922   -0.93453384007157
O           1.94072996888758   -0.51772400314489    1.27668842838646
H           1.57248885254070   -1.01665482451708    0.52156419569072
H           1.58174561765249    0.95150567625562    0.92962752492882
H           1.37093100002256   -0.81590724292279    2.01912516282556
O          -1.04183786474787    1.25167566634975    1.98714663472190
H          -1.66691191481345    1.97833223831686    1.98942004051061
H          -0.64609075531447   -0.53628454420795    2.86997218382058
H          -0.19276039679033    1.60124508237141    1.63368581092615
N           0.27306953677814   -0.44050175097615   -2.84273919070360
H           0.20796972313598    0.58221568094895   -2.59107822398422
H           0.74127671330868   -0.61146474840766   -3.72575618792612
H           0.70885204094441   -0.93707197169920   -2.00242522425215
