    26
        -50.45860918  Gyration_radius:  2.40823475804 Dipole_moment: 7.099
 S          -0.77042225166095   -1.29767376242762    1.24979132621140
O          -0.84888384798200   -1.57946690290648   -0.19740168893687
O           0.24382617525526   -2.05646766744175    1.91787946257107
O          -0.33194809016233    0.24619608226634    1.33241239004860
O          -2.09631614057786   -1.26820117230797    1.83325931229469
H          -2.87519181447044   -0.37950387778795    0.71880039682207
H           0.63827848655058    0.36160606378125    1.24005205419785
O           2.51742431250842   -1.66533490151070    0.49119992638649
H           1.76336494529576   -1.97470884740627    1.02832659302621
O           1.03353552792517    1.51299879001032   -1.54659036454035
H           1.46868077499319    1.90013769828364   -2.30718733391104
O          -1.38533334317964    2.11896110746351   -0.35359794253675
H          -1.05077644194400    1.81159186994973    0.50225135920673
H          -0.62800680413295    1.99455773481301   -0.95464896124583
O           1.21482684463832   -1.03590861214499   -1.76475867867926
H           1.07686425820009    0.50794468152393   -1.68932953092006
H           1.89933798393108   -1.32459231343314   -1.12208334230253
H           0.39121991367473   -1.34959235837999   -1.34284270133262
O           2.13272553793196    1.13360693961637    0.87654767639475
H           2.23342112847694    1.95489024266951    1.36035960748317
H           2.75427781118008   -0.80075531194930    0.84296755970608
H           1.84367141937079    1.36760060024385   -0.03434112646678
N          -2.87308658340778   -0.08538009398275   -0.30021396212386
H          -3.76567705068878   -0.21501146905833   -0.76350002867641
H          -2.10738538344822   -0.76462019447300   -0.60764699855615
H          -2.47842734827803    0.88712567459133   -0.40970500411022
