    26
        -50.45860915  Gyration_radius:  2.40825908363 Dipole_moment: 7.099
 S          -0.11035927975335   -0.16488882871638    1.94970771060956
O          -1.35958904359790   -0.22168960262020    1.16464668193603
O           0.33252908148870   -1.45076164753948    2.39820008228068
O           0.98992407567271    0.37365874764331    0.90955758087859
O          -0.16745764709714    0.91278958297073    2.91630238710981
H          -0.77467597809705    2.09730222533441    1.98316153449513
H           1.35432053036051   -0.34551054398240    0.34994086309211
O           0.36783183761632   -3.02971752330548    0.19295216765806
H           0.30133535808373   -2.61225836252074    1.07275661732797
O           0.11421104395274    0.08458818153351   -2.39365192291296
H          -0.05891285033531   -0.02174467477945   -3.32983313898743
O           0.41762445533821    2.36847601007805   -0.86608638759510
H           0.19298651419508    1.69820741183728   -1.53732433989918
H           0.99677410448400    1.89229771741755   -0.25229525296100
O           2.08983162501032   -1.10116587405369   -1.00998211987597
H           1.44568451909744   -0.70321008748333   -1.63829520816619
H           2.94704744544838   -0.71931145815446   -1.20520599678221
H           1.20461158546450   -2.73047552389498   -0.17795376811921
O          -1.42057498122999   -1.53752016474021   -1.13250567050527
H          -1.60035059524874   -1.06254878686883   -0.29778637505464
H          -0.54320305503074   -0.53045280482497   -1.92255667712192
H          -0.85456980939650   -2.28101705634935   -0.82954615684473
N          -1.35357516947180    2.29565911406975    1.11716659026988
H          -0.73404855272739    2.54314108369114    0.29959457897778
H          -2.10422353261346    2.95944929202837    1.27228236907178
H          -1.67317168149152    1.28670357307891    0.96675382098748
