    26
        -50.45860918  Gyration_radius:  2.4082352412 Dipole_moment: 7.098
 S          -1.18269330796350    0.02856807056498    1.56208168318565
O          -1.74656790044974   -0.37085247465585    0.25728688436368
O          -0.93636635736920   -1.08096054730214    2.43335502899757
O           0.24699620368441    0.66705418593948    1.20017387767914
O          -1.89834042873136    1.16969525601037    2.09580612027007
H          -1.99156193396400    2.09315888315934    0.76238815446249
H           0.94176483048393   -0.01739406348587    1.09033113048003
O           0.52309101364359   -2.84834836045042    0.98273577920886
H          -0.07848020952074   -2.36078882549752    1.57704048894746
O           1.44750783459915   -0.15380059754937   -1.90528617326387
H           1.85139291284311   -0.39477138310266   -2.73988686259661
O           0.57287178730975    2.29521167479337   -0.96824519683277
H           0.74713464519856    2.01876676661129   -0.05606488677551
H           0.84606113340929    1.52409126172445   -1.49835490445458
O           2.39876059607224   -0.74731098462748    0.53739940116869
H           2.18845968247390   -0.56203330781258   -0.40571280016046
H           3.16646902444668   -0.22010673832286    0.76413856886314
H           1.38292772692698   -2.42410919191170    1.07226330364329
O          -0.34230935182272   -1.91233335858280   -1.37463330094810
H           0.02775901484748   -2.48500131165699   -0.66750007370832
H          -1.01662191477648   -1.39716381137833   -0.89023433455272
H           0.71147895990756   -0.83698155159566   -1.75070356524781
N          -1.99159900268445    2.07282898410437   -0.29798392793216
H          -2.05552858978002    1.00956470007208   -0.38608136157714
H          -1.04837026247808    2.35307960043259   -0.67917621439254
H          -2.76423611606892    2.57993712424609   -0.71513680866205
