    26
        -50.45521602  Gyration_radius:  2.43525877426 Dipole_moment: 2.496
 S           0.79671015032038   -1.59850814162363   -0.52651295594607
O           0.82393568351470   -1.28280321813692    0.88525445061813
O           0.13499610529315   -2.81158514371271   -0.87150825606155
O           0.16411590561712   -0.40613876248891   -1.27058094265026
O           2.22872171208344   -1.58903857794341   -1.08428670901100
H           2.66397080095782   -0.80781879339339   -0.63031701625447
H          -0.76340392234646   -0.10531692426880   -0.82315048371406
O           1.22246969698399    2.50691186849106    0.28414813064683
H           1.53457452929219    3.41019465289882    0.35561427887942
O          -1.93578623355295    0.32322366441342   -0.16705715747400
H          -2.30211895546283   -0.58189852045461    0.05549814500268
O           2.91881666227218    0.36214689970909    0.43021373092117
H           2.42117789813335   -0.13071772440242    1.09701177350699
H           2.41074882818969    1.18454632570505    0.28739552680785
O          -0.46794636810087    2.27084268636747   -1.76099683038585
H          -0.10483972657220    1.47219748738650   -2.16051165187033
H          -1.30774452165763    2.00044140399883   -1.37047901661643
H           0.61830642395361    2.47767993166695   -0.49792413197775
O          -0.41899542716477    0.90786281797421    1.87761458904879
H           0.03375147855584    0.05743914550127    1.73634287270644
H           0.17697944041786    1.58244198755027    1.51503640011321
H          -1.53743638910051    0.65140003406303    0.68476647817676
N          -2.36834246966405   -2.20417299441047    0.43271347393985
H          -2.22555046507743   -2.36057522882702    1.42325852848690
H          -1.54844069580776   -2.57410312605113   -0.04811503055223
H          -3.16867014107266   -2.75465175001303    0.14657179365435
