    26
        -50.44340943  Gyration_radius:  2.45038098524 Dipole_moment: 3.528
 S           0.91866813705302    1.70336073236611   -1.06437018934289
O           1.40881949723144    0.43855887095759   -1.60555409704797
O          -0.39621132071724    2.05476064967634   -1.54837927125633
O           1.05660243583108    1.76786346269297    0.37866859137985
O           1.90747066147005    2.81465291586447   -1.62104975857140
H           1.67121062541634    2.87723502764723   -2.54144086877399
H           1.38324322215647    0.53612286317656    1.25722972608137
O          -0.97335491825604   -2.78812486964543    0.42800173722439
H          -0.75674083240527   -3.47781465174378    1.05851661256524
O           1.58357650279592   -0.31069539593800    1.75767543086402
H           2.45766402003282   -0.19451125148249    2.13385350892867
O          -1.71187555822870    1.78208833323452    0.79431616131456
H          -1.07849903971486    2.27396919778583    1.32330314737743
H          -1.38987567612158    1.88590202060527   -0.11903214855410
O           1.19053587005263   -1.71195461173069   -0.35328515383585
H           1.40592386632815   -1.28562401208047    0.54209450896882
H           0.22544205103454   -2.09224616711644   -0.25392975304411
H           1.17865460484898   -0.88736642249768   -0.98802775349901
O          -1.27219107733109   -0.64877790949703    1.91700356184227
H          -1.57280509137422    0.17275499145340    1.47428133645531
H          -1.25782795313822   -1.99614253025811    0.95680705384486
H          -0.35260725531788   -0.48607187708926    2.15625058325087
N          -1.21066548730975   -0.72514718228794   -1.35352070455938
H          -0.95633451393598    0.22006849983313   -1.61719423396818
H          -2.11620639939242   -0.67325130142212   -0.90270684440625
H          -1.34261637100963   -1.24960938250291   -2.20951120323730
