    26
        -50.44340967  Gyration_radius:  2.45061671834 Dipole_moment: 3.510
 S          -0.27831903862971    1.52516548531662   -1.57511992324615
O          -1.55637041881288    0.91025593743662   -1.22699477010433
O           0.14699489162395    2.52482561092871   -0.62295801326001
O           0.73450478637034    0.53416194139379   -1.88796304086350
O          -0.53490972468865    2.29528223740796   -2.94030389450470
H          -1.04754665838497    3.05159486411720   -2.67184822495386
H           0.57205249873114   -0.97462241881878   -1.58200315713269
O           0.39603284310780   -1.93300418501551   -1.34079156974138
H           0.33915829875928   -2.40808179386229   -2.17150539465620
O          -0.73412521621025   -1.77478147025169    2.28557039348671
H          -0.74166076525540   -2.72568438698389    2.41181718893234
O           2.27937652140895    1.18425602579564    0.35261404465939
H           1.53254825485403    1.76986952474983    0.13352364587419
H           2.63375426897054    0.92715919364164   -0.50258366404335
O           1.60616787808863   -1.30620443894572    1.19561361515850
H           1.85625336211250   -0.37039888863750    1.04439666060340
H           0.19374764602991   -1.52745345866653    2.02927235970800
H           1.45362185328591   -1.67294830240713    0.31721080252545
O          -1.69284676602797   -1.26744948854640   -0.01082625417173
H          -0.91760466941310   -1.67488496063873   -0.52334168464902
H          -1.39173304830252   -1.25891937336608    0.98687907354883
H          -1.70920509586525   -0.29484249560235   -0.38060254720906
N          -0.81454866670291    0.86003299858033    1.55358588607380
H          -0.05401786577254    0.89058838109685    2.22200023133336
H          -1.64864789300026    1.14790797652009    2.05037365782687
H          -0.62267727627418    1.56817547476750    0.85398459880556
