    26
        -50.46255793  Gyration_radius:  2.38617247123 Dipole_moment: 3.889
 S           0.14279387312088    0.44693293702369    0.70606091153749
O           1.36806342214713    0.54442640688434    1.46433200220780
O          -1.05471952028067    0.83904584596772    1.62898567697183
O           0.09154751350862    1.38395589954542   -0.42156267608285
O          -0.11463592265272   -0.91624510238865    0.24070146348080
O           0.01410254251067    0.20421122166713   -2.68293477728736
H          -0.89976429124704   -0.29218185094925   -2.45002216259336
H           0.08937382781752    0.83918070502436   -1.89479455842784
O           3.04568969542558    0.57362095848383   -0.59143036067859
H           2.93281677858497    1.45374046436200   -0.95591687850379
H           2.55800940705168    0.57437411522887    0.25731701832997
O          -2.60852953834793    1.51741421082292   -0.62172065688847
H          -1.65325535358549    1.69022749651642   -0.54852472595053
H          -2.93328040865615    1.53011245338707    0.28133992175010
O          -1.98753528235636   -0.86689588021769   -1.65309920102105
H          -2.48183660628099   -0.06247962119296   -1.38009646004182
H          -1.43311226270989   -1.09655131517289   -0.87629685590016
O           1.65305982647675   -1.39178197049513   -1.70570255821209
H           1.08128042107529   -1.50151166051498   -0.91824403896248
H           0.76327805730718   -0.52383666267636   -2.44832822900036
H           2.37376483411086   -0.79242163504479   -1.40411250539483
N          -0.19452941355939   -0.92212700949475    3.31759043883304
H           0.72180650525128   -0.61576068402279    3.00132442064027
H          -0.18671243622926   -1.00498492072677    4.32631054932845
H          -0.91901389928321    0.22480964394961    2.41119062658492
H          -0.36866172919271   -1.83527405596461    2.91763363527076
