    26
        -50.45521636  Gyration_radius:  2.43494937801 Dipole_moment: 2.510
 S          -0.16265351507300    1.71005841267691    0.71750748881845
O          -0.53695562622760    1.53726188199007   -0.66948788942949
O          -1.19392313814531    2.18539373770994    1.57711929141502
O           0.39545360852537    0.36874516076729    1.23178492059026
O           1.07426392410801    2.61745639706917    0.80811810320395
H           1.64961449885339    2.32641032354445    0.03987552328877
H          -0.26246047761775   -0.44963081240106    1.00540651927784
O          -1.10040018246814   -1.51399461707421    0.62183632004151
H          -1.97741440394484   -1.05866326661540    0.78576937430750
O           2.20818238028176   -1.09006404678687   -1.34439397896832
H           2.92668777816300   -1.56666186911173   -1.76276799710602
O           2.07741639852803    1.64535709417194   -1.34250369045546
H           1.16721261055133    1.71620878718824   -1.66150346577025
H           2.26249648298837    0.68654875264453   -1.30591959084246
O           1.72545053438879   -2.08159987607106    1.08037776416804
H           0.82201718811442   -2.41833466213129    1.04822066814510
H           2.08935757935527   -1.48821119679883   -0.44729699354335
H           1.67001382313748   -1.25181703528651    1.56801423948962
O          -0.52958019042954   -0.89813896813260   -1.85129105856767
H           0.43072267567440   -1.03201706116493   -1.89100480183161
H          -0.97590990371817   -1.47421011703126   -0.36562813454885
H          -0.65230738502582    0.03618254969886   -1.60595138548617
N          -3.12534650384949    0.14089478065261    0.92641110981925
H          -2.57129569499619    0.93801123421576    1.23921229067863
H          -3.89582656674813    0.02716565349104    1.57359373923196
H          -3.51481591442697    0.38764874278262    0.02450165406667
