    26
        -50.46328765  Gyration_radius:  2.42789481079 Dipole_moment: 7.587
 S          -0.56527259845318   -0.00192762099389    2.05681276212011
O           0.39941533131998    0.93503042127780    1.45251336471672
O          -1.33233008180963    0.55968108861533    3.11144329337926
O          -1.39614061585360   -0.55881778478497    0.95429625045030
O           0.26434379356676   -1.20586696896964    2.60409219496417
H           0.80676537836173   -1.54329943148829    1.85822869762251
H          -1.63304824102123    0.46591208325669   -0.08222825625088
O           1.83301675680275   -2.08867718507462    0.62985262181904
H           2.65699102561322   -2.36308334212768    1.03465270119561
O          -0.00310145764593   -0.27250389309504   -2.45836749909967
H           0.07709858772990   -0.57033756470147   -3.36478003374335
O          -0.36747971836653    3.13896327150036    0.32905000155387
H          -0.07593764664884    2.41688783624470    0.94119936147783
H           0.43666875177596    3.56801625697064    0.03032611328912
O           1.98400908843349    0.23917637335373   -0.51517489554603
H           1.39636780301283    0.19562425751631   -1.28390769232091
H           1.44203673692740    0.59995741176139    0.22542095493809
H           2.01915131839566   -1.22908966250729    0.15119238691046
O          -0.49453824767739   -2.25484189588357   -0.86193222201205
H           0.33350998505871   -2.55091320993935   -0.46030690251898
H          -0.94653113728819   -1.75248520726578   -0.14812682201010
H          -0.18876247804811   -1.09290010951972   -1.90508257308286
N          -1.67413713624261    1.18322813949625   -0.90095896601469
H          -2.63527102886869    1.34651191653711   -1.17920578589253
H          -1.11516655737770    0.77011043118107   -1.67287519980292
H          -1.22165763170097    2.06564439866996   -0.54613384612104
