    26
        -50.45260137  Gyration_radius:  2.49721145524 Dipole_moment: 5.353
 S          -0.51185737010325   -2.24124923726083   -0.10436167710494
O           0.54854007909849   -1.52163403810288    0.64094070871089
O          -0.71266462253156   -3.57445013859351    0.34735166736811
O          -1.74435012265074   -1.41431720387642   -0.04973201144739
O          -0.05714040973170   -2.27087655344426   -1.59774155494230
H           0.11875772805510   -1.34764812193544   -1.88595802966584
H          -1.74761638847787   -0.84702541612626    1.42788335388467
O          -0.49824272148646    1.98947801855608    1.50138676251853
H          -0.36571242188406    2.87531995682480    1.83955312480063
O           0.28795817010109    0.22367410368561   -2.47907899511679
H          -0.03986398826097    0.25099646619168   -3.37976840081387
O           2.66332226806720    1.21836801235377   -1.56527625107048
H           3.33206164247114    0.55689336110602   -1.75039044758631
H           1.84022388817405    0.90234470541868   -1.98116574716179
O           1.75084830726549    0.86614709150951    0.95801996121832
H           1.46517304398301   -0.05737498942267    0.82322143973485
H           2.15353931120327    1.13574287767341    0.10758949416734
H           0.41877381133303    1.62977776979535    1.27716224103066
O          -1.57844543965727    1.06968228995894   -0.91908309117617
H          -1.26397404016422    1.52808122476739   -0.12404815928034
H          -0.41824389098931    0.66016875707275   -1.91094400512433
H          -1.78300627818144    0.14914623501655   -0.63746268378247
N          -1.14292425060574   -0.51018909876180    2.23954219400775
H          -1.04182216728948    0.52575652277207    2.19306141303079
H          -0.23489400654407   -0.94750802307012    1.88180436845106
H          -1.43844016118208   -0.84930458209767    3.14749431535420
