    26
        -50.44611894  Gyration_radius:  2.52852556262 Dipole_moment: 8.298
 S           2.46713378546418    0.06384307831518    0.59473790374799
O           2.39362730096711    0.14844413030435   -0.83927222932079
O           3.52524106205564    0.73325799646712    1.25188771850235
O           1.07846364010939    0.51377531396855    1.15902964572812
O           2.46524863289182   -1.43006362428871    1.01743802900682
H           1.74956916903260   -1.90563375479288    0.51491354998670
H           0.70754874999045    1.31356140207234    0.60966286823467
O          -1.43625388893534    0.34069981294641   -1.58427199768123
H          -2.32955197166188    0.33509379374852   -1.92897491361992
O           0.59797260914104   -2.67763618143035   -0.32831267485246
H           0.91751585764960   -3.55855451486963   -0.52974227222940
O          -0.10782936622787    2.29442082312273   -0.14543189307953
H          -0.42127771115100    1.78370703316468   -0.91000116442642
H          -0.88981842402992    2.35213336596668    0.46001564026396
O           0.72210401142655   -1.17376775687159   -2.40642970643044
H           1.45397176559707   -0.63937355939058   -2.03570242899866
H           0.61803868240388   -2.16090426941705   -1.19995929389862
H          -0.05705882160826   -0.59532362838920   -2.35361231524020
O          -1.22873875048619   -0.91719613389694    0.76649000833364
H          -1.45673343955912   -0.13475263941696   -0.71772686584536
H          -0.86045505607741   -1.77228653775380    0.50110114029360
H          -0.46495915501169   -0.42707507862979    1.11817531304891
N          -2.18988747711994    1.96623076039149    1.55389477181607
H          -3.10223898336126    2.38923006306118    1.43972815758461
H          -1.85200403981993    2.19929186074358    2.47921748915206
H          -2.29962817178224    0.95887824499849    1.51314550993635
