    26
        -50.44354688  Gyration_radius:  2.42723350387 Dipole_moment: 1.742
 S          -0.63224268677465    0.09615588256635    1.68090158321616
O          -1.32609182062838    0.53326530511924    0.49932165064405
O          -1.11514943546390   -1.10710677059486    2.26815410976887
O           0.88625879165661   -0.05545453719708    1.35282795547477
O          -0.58695870009091    1.24909694184448    2.69389107130597
H          -0.36536492723200    2.03620337865077    2.10618611607263
H           1.03467486722883   -0.82414817390831    0.71581027610703
O           1.28879883758513   -1.91935248792289   -0.36435523659707
H           0.88024345316187   -2.73992498785934   -0.08366248195888
O           0.82575417627953    1.68006365612594   -1.24858784803111
H           1.03650616967775    2.20529774345075   -2.02302645163552
O          -0.17604569098085    3.02395642270529    0.88291661091980
H          -1.09059681829029    3.15180627508093    0.61726209017343
H           0.22276355262180    2.50118843589028    0.15093656253993
O           3.02348176472490    0.33948731114313   -0.48240932190990
H           1.65573214852396    1.21020485795377   -1.00170123769716
H           2.92101186793637    0.45471234341844    0.46713836095273
H           2.78308578222896   -0.57776207124991   -0.66277777853983
O          -0.34777070769280   -0.84500874367227   -2.01379252773576
H           0.70224197927112   -1.55158881467120   -1.10673142164271
H          -1.16725950142715   -1.24150579031857   -1.64456465884359
H          -0.32210132052323    0.06639706667881   -1.68424773759060
N          -2.36017259727832   -1.93615198014901   -0.50544377100753
H          -2.25663490603769   -1.06249178087959    0.00737245656573
H          -2.18400310095125   -2.67432055894802    0.16567226746129
H          -3.33016115751200   -2.01301891324558   -0.78709065801256
