    26
        -50.46147049  Gyration_radius:  2.59197683083 Dipole_moment: 4.230
 S          -0.29297803998984    0.45953087764272   -0.50945245191376
O          -0.59145223163876   -0.71335669223990    0.30036854383168
O          -0.34994079746721    0.21806558492055   -1.93101368339764
O          -1.12235539703613    1.59615979302457   -0.07327655267304
O           1.16837826583271    0.89802288429079   -0.12682156761463
O           2.48218910238515   -2.40139138361004   -2.00020388571206
H           2.72310997402003   -2.96443042496483   -2.73740126111991
H           1.51424346792727   -2.53531514217002   -1.85631766391271
O          -0.16725597009858   -2.44769992735624   -1.71770972768163
H          -0.34873935614966   -2.26515462102918   -0.78436346000295
H          -0.35379295012886   -1.58819307531950   -2.13101696717279
O          -3.13741628835734    0.87160893991096    1.57238787840409
H          -2.50600737601257    1.18515443761856    0.89442421326374
H          -3.75007428885541    0.29407994427298    1.11462697793398
O          -1.03016161671192   -0.21478465799571    2.83835901186799
H          -0.79623151549504   -0.62024596883667    1.96999847625165
H          -0.29989399958534    1.06841830454728    2.62103996753293
H          -1.95337365494814    0.07790133562128    2.69450784318696
O           2.31469431631083    0.25040267546609   -2.29632806857368
H           2.53499740015874   -0.70499063569126   -2.19229812969440
H           1.41864954173399    0.27340484597401   -2.66545857838245
H           1.74827797357483    0.67750476799820   -0.92733647341850
N           0.12053553581228    1.96727480779471    2.14250619292660
H           1.09683876078710    1.81028106275752    1.89710389196822
H          -0.00449503385946    2.81024627177989    2.69364002827572
H          -0.41774579220353    1.99750598559216    1.21003545583405
