    26
        -50.47039596  Gyration_radius:  2.41535401161 Dipole_moment: 4.714
 S          -1.30025478283372    1.48247032066060   -0.48876292502226
O          -0.70251501579838    1.92416778950372    0.76119403522967
O          -0.36033675915917    1.33822214694930   -1.57208256896356
O          -2.11029402032444    0.27966912306603   -0.27809821648758
O          -2.31068689798115    2.61959294141644   -0.92539711806574
H          -2.81955808287334    2.75880986799770   -0.13414411816978
H          -1.86407000614234   -0.21523004091084    1.27768488419354
O           1.02334665091924   -2.15678479033886   -0.89667108862645
H           1.20117260112623   -3.03240115308122   -1.24186170833706
O          -1.47894012394656   -0.26770114493717    2.18282296482624
H          -1.21619918227588    0.64722686005718    2.34666909578656
O           1.82503693733490    1.18554233051726    1.19060619647922
H           2.16632393017764    1.05746979617873    0.27357546173553
H           0.95497260647239    1.62316524309595    1.07320609402212
O           2.16777639868077    0.44609547221462   -1.32693300987604
H           1.32234248493437    0.87257151194813   -1.56044718560680
H           1.98186649327853   -0.50224464120856   -1.30690499845631
O          -1.03531866294861   -1.19768870493573   -2.16031674127854
H           0.20961516042778   -1.82927438446386   -1.38347885765968
H          -1.60888296248897   -0.82684335765513   -1.45838845534702
H          -0.67486737630322   -0.39971581946640   -2.56921381651087
N           0.93427047042471   -1.19373770683006    1.65163373165053
H           0.96025113615491   -1.67308643145299    0.72989889505100
H           1.40989901776474   -0.21701637976486    1.53136472634408
H          -0.07051156806214   -0.97526148634621    1.92020713140157
H           1.39556154339292   -1.74801737218227    2.36383760170243
