    26
        -50.46422561  Gyration_radius:  2.57407218014 Dipole_moment: 3.136
 S          -1.24563527582481   -1.81806732047662    0.68999493789564
O          -0.96317577855874   -1.76882871048618    2.10656694563676
O          -1.37340009801620   -0.48919110883684    0.08665170914068
O          -0.31810398475109   -2.62947401164151   -0.07446751067026
O          -2.67896413772223   -2.49071759229724    0.57406988345982
H          -2.84754413725920   -2.69810782939578    1.48738303296949
H           1.14276510777678   -2.15330169356719   -0.49040058960358
O           2.03835177547360   -1.76035078796552   -0.66707777643167
H           2.62414163896590   -2.50391147743946   -0.81476515414965
O           1.13966136668832    1.94876675961301    1.10583320140507
H           1.80059547815104    2.48018136063749    1.55048211934007
O          -1.51437146439025    2.25040645486196    0.06630186996005
H          -0.70755758374314    2.38781640492446    0.58098200211850
H          -1.71301889385798    1.30519662671832    0.16509043339651
O          -0.80973553594916    2.27472923031185   -2.51838586596200
H          -1.58300570360039    2.07689909259144   -3.04784702256182
H          -1.14264122408737    2.43278472621757   -1.60120212802586
O           1.37402890236124   -0.54955731843814    1.83773934184842
H           1.18164873072935    1.04514672069621    1.52013834174382
H           0.53319879454567   -1.00310674863157    2.05215303950871
H           1.76082887646565   -1.02667839640718    1.08952475455427
N           0.68704567557222    0.53608905640590   -1.16972783641328
H          -0.14099946882280    0.04923651751809   -0.71427192566372
H           0.31585919356991    1.09266536238373   -1.96664662365562
H           1.05331892576038    1.18956436024510   -0.45128935030638
H           1.38670880049955   -0.17818969755778   -1.39682982952135
