    26
        -50.46746637  Gyration_radius:  2.4123093449 Dipole_moment: 5.263
 S          -0.30090384691737   -0.47152358985158   -1.77631080708128
O          -0.77229076047264    0.35689158741982   -0.65567411441443
O          -0.38368537460046    0.21029991885724   -3.03505197352789
O           1.26200036712641   -0.67798975865838   -1.44906612726550
O          -0.86974882382682   -1.79655201541387   -1.69324683726944
H          -1.19638122910207   -2.20485239562352   -0.20350672493578
H           1.64533387224607    0.18583577272842   -1.77765246043301
O          -1.25100323661596   -2.49585092309466    0.75207067351330
H          -1.41985167441250   -3.43901784774734    0.71973272696160
O           0.35167593479096    1.05781631623245    2.30277827938732
H          -0.61190638463492    0.84950125018381    2.27858024207542
O          -2.06220309894410    0.12112834058028    1.66750245805197
H          -1.77834438866159    0.25676904746734    0.74341517647426
H          -2.15345891220446   -0.83388764576986    1.74484345585482
O           1.69937149029850    1.68835020778720   -2.30749869979428
H           1.38718872930625    2.23258219685393   -1.56457385024306
H           0.91734339057402    1.46038101139446   -2.84451572327588
O           0.35628537572997    2.57063550201255   -0.02508644582451
H          -0.28681119535805    3.28084642480767   -0.06098475205698
H           0.48531169230485    1.73889943679932    1.61819379418386
H          -0.12712962733614    1.74598595629717   -0.30321753379707
N           1.04326671832093   -1.18147866965384    1.18518148579851
H           0.17358800449307   -1.76892459560161    1.18991489036220
H           1.24449812365066   -0.97915861188802    0.18192505728182
H           0.82722110046269   -0.24023994276561    1.69085710123158
H           1.82063376558997   -1.66644697531294    1.62139073647436
