    26
        -50.46176284  Gyration_radius:  2.48525080792 Dipole_moment: 8.079
 S           0.15327194383928    1.24542143511566   -1.36422529864231
O           0.88735417655594   -0.01782737007176   -1.59489904236292
O          -0.33234754552121    1.85231176519998   -2.55811468168447
O          -0.87764551300853    1.01363808585093   -0.34146828209924
O           1.19770872987334    2.21538802545469   -0.70055364380493
H           1.44942297693166    1.79204143368730    0.13899139946025
H          -1.99234696757245   -0.27676656716893   -0.36695089487925
O          -2.30900649125434   -1.18954782528192   -0.53897422282289
H          -2.26950732791643   -1.24219484691923   -1.51298040969988
O           1.66939367330487    1.23888946154569    1.81097563892566
H           2.22611829159840    1.89207511798409    2.23934836927964
O          -1.30916154046656   -0.72127901703275   -3.01564495818869
H          -1.57251445797284    0.13447013739353   -3.36772952299358
H          -0.41206683067439   -0.55633954178285   -2.68272439630174
O           1.45194855757810   -1.44377977758544    2.21077891760820
H           2.33285956611656   -1.79565217218459    2.34746103386752
H           1.55447681026267   -0.47819341843112    2.09677008879162
O          -0.84502631181116    1.81751333079077    2.12105654102532
H          -0.96276580103181    1.63864578799909    1.15505597823859
H          -1.42788011221383    1.20325589817381    2.57175735754654
H           0.72716926094714    1.48824857356634    2.03243727417345
N           0.13873654786177   -1.99482045918797   -0.11858506287126
H           0.53526088422549   -1.19530847120680   -0.72088098227281
H           0.37603715719234   -2.89216765505350   -0.52708525624064
H           0.53003675759938   -1.90071103085599    0.83835380696344
H          -0.91952644489132   -1.82731089958058   -0.15216974072922
