    26
        -50.47229241  Gyration_radius:  2.48058681865 Dipole_moment: 1.996
 S          -0.26054050357606    0.91244021779192    2.07171027338982
O          -0.59654689785479   -0.42025721093747    1.58034881736034
O           1.12691700872416    1.24228122382612    1.81657348086717
O          -1.19989190003641    1.91314328133699    1.60342475034648
O          -0.42746111669174    0.87146001732096    3.64723631079518
H          -1.35983973787227    1.03522016652072    3.74050821814089
H          -1.00111997115956    2.04158626229724    0.02025728881015
O          -0.52846345260225   -1.84198883038853   -1.94728135875382
H          -0.98926238395935   -2.41781733598328   -2.55761747496768
O          -0.93234859184478    2.05193994597340   -0.96871003579070
H          -1.03763075224178    2.96825074423777   -1.22948201379524
O           0.82204069743051   -2.38042033493185    0.40064714848515
H           0.24333210023341   -1.84669373734016    0.97872762656852
H           0.36121922362936   -2.40567493498754   -0.45737132581246
O           0.95885071290822    0.46489717788690   -2.15622404652112
H           0.46913514974804   -0.36904032778047   -2.27451313329686
H           0.30849802832370    1.09822470866286   -1.79790577739673
O          -2.19616034217683   -0.41286860123511   -0.54523873570572
H          -1.73283577747845   -0.44692923417879    0.31771594587662
H          -2.05900247849823    0.49182046722276   -0.85824092097983
H          -1.23282042736131   -1.34578316758991   -1.43849986736203
N           2.28889462496060   -0.24087267915070    0.00778095352478
H           3.30197013037973   -0.24546559297657    0.01534637526666
H           1.87434753490884   -1.20717706063597    0.17791361972055
H           1.90304677020515    0.38489076458839    0.77011785832996
H           1.89567239185392    0.10483408047285   -0.91722394714768
