    26
        -50.46365339  Gyration_radius:  2.41771491194 Dipole_moment: 9.111
 S          -1.42619504256052    0.75491405167685   -1.15568553817757
O          -0.29009928117260    1.40913819719693   -0.50779629774409
O          -1.76429133880641    1.26618457179320   -2.43885277496985
O          -1.20179033574766   -0.71715099724954   -1.16872338060737
O          -2.64140596754438    0.95783112486479   -0.17517259472253
H          -2.32237471191181    0.65915677455573    0.69605159456330
H          -0.19747550405401   -0.68637716852068   -2.59323430098824
O           2.27075440132902   -0.70361449951810    0.92557363400549
H           3.13484471643337   -1.11305445051548    0.97771276001682
O           0.45209350570805   -0.38529260969391   -3.25010546028515
H           0.02048566869160    0.36401834941723   -3.67100691651617
O          -1.64870777154348    0.15653162134846    2.26048389667579
H          -0.79853478055462    0.69217466972514    2.25442675624302
H          -2.20463311965990    0.53569905045180    2.94285758511977
O           0.60489695736276    1.38824974118430    1.96225040667680
H           0.33476062747291    1.61568139253790    1.04648793115339
H           1.35619505744525    0.79014846610384    1.85054148239898
O           2.07676929509164    0.56478328859255   -1.30475548896684
H           2.24769337701253   -0.21949709587290    0.03674291615854
H           1.78100283742019    0.09586577132487   -2.10881531333137
H           1.28092298957795    1.07622232115764   -1.05022818409826
N          -0.20182475403320   -1.72892893834155    0.91840476424153
H          -0.28608443888588   -2.73913400449949    0.92768001365228
H          -0.75528489227465   -1.29607336329022    1.66933382127158
H           0.80004121614780   -1.42319856053562    0.97740116312138
H          -0.62175868094488   -1.31427771389818   -0.02157246489085
