    26
        -50.46365334  Gyration_radius:  2.41761649138 Dipole_moment: 9.115
 S          -1.73328454462899   -0.44214284336226    0.85979713139948
O          -0.86221179838138    0.71994786329709    1.03150072508965
O          -3.12661506983650   -0.16578067302275    0.92648462150058
O          -1.35241977895551   -1.15955647237349   -0.38824728820623
O          -1.34124929808326   -1.43425582956764    2.01788154110267
H          -0.37235024798308   -1.52487410096901    1.96298515246519
H          -2.27365460481403   -0.10996882160510   -1.43273189415136
O           1.82760225409674    1.17030721222764   -1.34148326703838
H           2.28082264402030    1.58202178037451   -2.07778133724188
O          -2.69020276715593    0.69341254114856   -1.78624867165890
H          -3.38658559803998    0.88706987391112   -1.15184586195662
O           1.39840223820801   -1.58617978621730    1.83897343351902
H           1.59660230930748   -0.60151314539108    1.81336531488039
H           1.72938312340644   -1.90891093498178    2.67846319650052
O           1.70828661777196    0.96067636965209    1.51703735615519
H           0.73197163047488    1.05197613829128    1.47389473642860
H           2.01232840269147    1.20138925934613    0.63148522941154
O          -0.52790978681678    2.18506070542146   -1.13430666291222
H          -0.70014578300177    1.83303684587866   -0.23644132912359
H           0.91346974230632    1.60367934418541   -1.30284247476402
H          -1.26654437957615    1.81379126001616   -1.65443666585172
N           1.11891775795931   -1.36681870616980   -0.86736065043486
H           1.47976535383636   -0.41493232157633   -1.12143710491866
H           1.50188988178873   -1.66752537582634    0.03838965529069
H           0.02589749455393   -1.27452780818369   -0.69864737369208
H           1.30783420684026   -2.04538239449387   -1.59644749179403
