    26
        -50.45604759  Gyration_radius:  2.44541861804 Dipole_moment: 8.182
 S          -0.57161758330500   -0.64560459387695   -2.09193290626420
O          -1.17926825288445    0.70350234752741   -1.95269183933701
O          -0.32757580125955   -1.01427677385205   -3.44028203564066
O           0.59692806137542   -0.71721156671091   -1.20255441758211
O          -1.61702058014625   -1.64424348364405   -1.46249185879000
H          -1.48071342116632   -1.61250443490246   -0.49580980087365
H           1.22616205902324    0.76908009715686   -1.31655397536341
O          -1.42744169323837   -1.43543188484136    1.22294591197494
H          -1.66564879569621   -2.26928201533655    1.62991129893375
O           1.38022907467039    1.74531139608257   -1.31226854831267
H           0.69282039065770    2.08151919246076   -1.89493577900846
O           0.74701651285225    2.02101140978810    1.19417264128252
H           1.20001356257666    2.76760889854376    1.58716419225437
H           1.06875464790421    1.95564088114548    0.24762391935109
O           2.27644863324830   -2.05417559256446    0.32716231648688
H           1.65046831109432   -1.69088685544147   -0.33296946286800
H           3.15207499064026   -1.83693866273126    0.00382906829916
O           0.85943001378682   -0.65609637914333    2.12746083099914
H          -0.51425471206916   -1.19619700070248    1.58407505481035
H           1.48026766024125   -1.19245385485951    1.58883844096448
H           0.95837833658243    0.26020655875816    1.82718674515034
N          -1.72200307294521    1.14837247153627    0.46047396591856
H          -0.87708421970267    1.58572000774063    0.87513650793260
H          -1.50556228595040    0.97427873563087   -0.63613925219589
H          -1.86051393301931    0.21843990608329    0.88392416571214
H          -2.54028787309433    1.73461120624585    0.57872480614438
