    26
        -50.45912912  Gyration_radius:  2.50131449476 Dipole_moment: 6.708
 S           0.31950860353724   -0.37047521658877   -1.13767600819143
O          -0.54302137557890    0.64421122050004   -1.76644295047067
O           0.57445048644228    0.14820881316075    0.32837878961044
O          -0.30720500433799   -1.66430027139593   -1.04881397300212
O           1.64939741137957   -0.36766369359055   -1.73330280812768
O           0.89235875836015   -2.67008439363217    1.09476895139054
H           1.53492401639468   -1.96428212176064    1.19867348419187
H           0.44894237244440   -2.48297551639402    0.24268454008648
O           1.53341529357974    2.66646726501522    0.51942471039530
H           1.29260785064807    1.72082417286874    0.59573852111633
H           0.86917202775812    3.14809773459117    1.01649396558182
O          -1.19507333250297   -2.20931959320777    2.71947066870411
H          -0.90154054751275   -2.34957006380915    3.62048449127847
H          -0.45619634874114   -2.49877488093862    2.13656323374839
O          -2.76839153489483   -0.43839340560385   -0.72659480059258
H          -2.12502355047456    0.07942695391382   -1.24309635551053
H          -2.46089801632687   -1.34692859533109   -0.82290452374364
O          -1.58431799005739    0.15645092736597    1.56509190572529
H          -0.33751450260380    0.16252877809283    0.87312126245783
H          -2.21247017667537   -0.01082583101916    0.81928602510721
H          -1.55219363031450   -0.68556044696964    2.07777767791530
N           1.49372823052049    2.12423046759414   -2.09393949582256
H           1.88903863716810    1.12331391063134   -2.03043747348162
H           1.81624321518887    2.65717879442936   -2.89366832973130
H           0.47450822778511    1.83156620512313   -2.13346925317348
H           1.65555087881989    2.59664875697617   -1.17761226544917
