    26
        -50.45842873  Gyration_radius:  2.45475758155 Dipole_moment: 7.767
 S           0.00853635039820   -1.65049104286185    0.76234843954375
O           0.01373099051348   -2.51945324954574   -0.40198860729442
O           0.72233390967245   -2.10159899652002    1.91454070364543
O           0.78907749809305   -0.34797097003813    0.22904988593930
O          -1.34425813979563   -1.15362973799774    1.06196954300990
H          -1.85631149411239   -0.93921121844892   -0.42721493987334
H           0.81961779522997    0.24941765634508    1.00142085329934
O           0.74955213473202    1.46082883025297    2.18727829024984
H           1.36703406523246    1.15399314362901    2.85445408542502
O          -1.96631308766157   -0.91381490782898   -1.41371679535828
H          -1.63356906985980   -1.78177127677431   -1.67124417077464
O           0.72733884056046    2.57525785424772   -0.40609916048506
H           0.60280790059712    2.28188033294140    0.51009662030967
H           1.64674408152193    2.83984805253088   -0.47221520666850
O           1.61475789633107   -1.47268589685462   -2.14939611697303
H           2.42876913648761   -1.36278717795621   -1.65460800139317
H           1.01273836226899   -1.96588921508963   -1.52763424108007
O          -1.57429511534814    0.58776877035880    2.96591454016071
H          -2.40675448335023    1.02368418171541    2.77533149652035
H          -1.52362468366749   -0.17998073841847    2.34040182536779
H          -0.15322652030553    1.23675263724183    2.54507936310226
N          -0.00553374184026    0.62445235673614   -2.22391777875439
H           0.24433709668512    1.34233426334174   -1.51329115748618
H           0.74569485080467   -0.12778441855332   -2.24600491366254
H          -0.88461532443664    0.09687250649436   -1.90361460384555
H          -0.14456923874848    1.04397824105436   -3.13693995292269
