    26
        -50.47153666  Gyration_radius:  2.41205092216 Dipole_moment: 4.083
 S           1.19615186324467    0.49402961744643   -0.71155853259133
O           1.37533683697133    1.16286778296385   -2.08924350330296
O           2.31806925087332    0.88516630162392    0.12351943952595
O          -0.07122895501917    0.97923660998255   -0.14277391120707
O           1.13578840817188   -0.95388492398063   -0.89709210862789
O          -1.10629664352701   -1.70648071327156   -2.08308138847143
H          -0.19511479895973   -1.61612746022590   -1.73495886876388
H          -1.66864334606947   -1.58082507864302   -1.30248829559103
O           0.24032526016757   -1.86261852586991    1.41081124622347
H           0.64854182771450   -1.69894442038301    0.53016736607160
H          -0.70161503661495   -1.69330299335659    1.27468178469389
O          -0.47264010373552    2.01073306697125    2.24856306975383
H          -0.32989160144047    1.80692390273706    1.29522334503527
H          -1.39991159413246    1.83796828562348    2.42138165027640
O          -2.05956083496114   -0.64287956615494    0.30958384209308
H          -1.32670552475824   -0.00985981867172    0.10182292704656
H          -2.87555975641925   -0.17014920999998    0.13975438278969
O          -0.83170389274135    0.58814733302627   -3.31198129190673
H          -1.04526409197542   -0.29706346138977   -2.90564034549430
H           0.51121502074860    1.01364149656175   -2.56976526443748
H          -0.63575161644330    0.41643375348680   -4.23539711912131
N           1.47302037227334    0.20321235557945    2.46590227021026
H           2.13072538255165    0.08885730788101    3.22902913148840
H           0.97882490353482   -0.70518801391685    2.20943863951884
H           0.75219396184639    0.93533207740833    2.66152440276149
H           1.95969470871144    0.51477429457221    1.56257714202708
