    26
        -50.47427166  Gyration_radius:  2.41153273343 Dipole_moment: 3.240
 S           1.48140959740090    1.16956397960609    0.51802778606314
O           1.99114282259375    0.15178199526322   -0.39840187711005
O           0.59699028057577    2.11486036156946   -0.12108777781868
O           0.91843642400647    0.56689076922580    1.71508403511975
O           2.74346994596911    1.99616560364120    0.99624764777648
H           3.22351237355134    1.35398919126712    1.50759071083398
H          -0.98530111157071    1.53799949157233    2.15385351680271
O          -1.49741720226762    1.87005395878126    1.40763284250828
H          -0.80050917450281    2.13894982120243    0.76836660021189
O           0.91886412012271   -2.21556804768369   -0.68954762546757
H           1.35292795941941   -1.33577216630510   -0.56470983377451
O          -0.38339627760387   -1.75262520150928    1.68293573511531
H           0.14519678344012   -0.94120608372044    1.84090032736856
H           0.07280373188892   -2.20119475749880    0.95292033833759
O          -1.18590674561186   -0.94605736304405   -1.96038638403380
H          -0.64440340813043   -0.20565585969411   -2.32186202781671
H          -0.52751982090001   -1.58975275222580   -1.64747759979487
O           0.59507330017399    0.94476456948549   -2.55814920820775
H           0.32162534369869    1.77694175583617   -2.15664003072090
H           1.26198513684247    0.60875557566140   -1.93330596555707
H           1.57213966827390   -2.77624097068819   -1.11023091341538
N          -2.26582423082363   -0.45209387358176    0.38068814197156
H          -1.64252769566977   -1.07871641352180    0.97491884841496
H          -1.92770357201557   -0.56831199033147   -0.62578552480081
H          -3.24398014805226   -0.70298447896052    0.46757355780302
H          -2.09108812087619    0.53546287566558    0.72084468023718
