    26
        -50.44727160  Gyration_radius:  2.50201160706 Dipole_moment: 6.990
 S          -1.15640422649886    1.83732764147294   -1.02891119594867
O          -0.85777613426310    1.65317804656576    0.37916205584575
O          -1.24880582336728    3.17725333607070   -1.47667323623764
O          -0.05646082131690    1.06652718638001   -1.82986966083494
O          -2.40900677222806    1.02968747560185   -1.38625227151240
H          -2.66063910142343    0.43621628680272   -0.59737097779326
H           0.79814485130300    1.45579599282209   -1.46243860479246
O          -0.98665565963410   -2.19156680306261    1.06489104376511
H          -1.19158258241759   -2.83250857413309    1.74717949226465
O           2.58216227617865   -0.38388930108756    0.45074503259862
H           3.47859831183581   -0.71044712747825    0.36782046937461
O          -2.85534626066385   -0.29330984570920    0.73323101369804
H          -2.26376193949263   -1.08053186774010    0.76029140249366
H          -2.43758405811704    0.36935511245461    1.29510482771202
O           1.85284928639764    2.03316400662517   -0.45531583829976
H           2.23260685687489    1.21252700185456   -0.06535940998670
H           1.24490884292275    2.39540549122214    0.19752426924364
O           0.33167661420759   -0.14286898310663    2.03047424078479
H          -0.08547633892847    0.57254322227565    1.51751003926672
H          -0.43786795145267   -1.48176156786927    1.49932691684108
H           1.23555971806568   -0.21575150132634    1.68757899133214
N           0.93440932754567   -1.66056303503451   -1.16197916662786
H           0.49490673987182   -0.89197638081578   -1.66030440816160
H           2.00892616585543   -0.92028570887636   -0.18521842983820
H           0.22112362778628   -2.08701164628176   -0.57719074273688
H           1.23149507109373   -2.34650845766127   -1.84395584254524
