    26
        -50.45745696  Gyration_radius:  2.39286295094 Dipole_moment: 7.910
 S          -1.91358169791760   -0.07129897386277   -0.01781610301693
O          -0.67824341746771   -0.38149705277605    0.71621964558500
O          -2.77066342490866    0.82714949113648    0.69152498052032
O          -1.36493075490956    0.70386238621570   -1.33129992268406
O          -2.50733066166660   -1.27266211099068   -0.56242062444706
H          -1.39897433107644   -2.40490398819850   -0.50487113329410
H          -0.82724147829733    1.48384553250272   -0.99894943819887
O          -0.64627579635283   -3.03603112707475   -0.68833656293345
H          -1.02726060073671   -3.74176370393482   -1.21459425865107
O           2.40090003999689    0.45138036218285   -0.24980859434865
H           3.35825312923882    0.41696236679523   -0.26581390660781
O          -0.60341900983363    1.86528029897026    2.08856717973112
H          -1.49551166754569    2.20741201401317    2.19009319553050
H          -0.74340199696339    0.98975032137530    1.66508020260146
O           0.31408414389426    2.41660801126503   -0.36812054755445
H           0.03417636884001    2.42737911885066    0.57398922464015
H           1.13083462511252    1.89727377198932   -0.38996727859076
O           1.55658525046599   -0.16808905075512    2.12940081873877
H           1.26241587741830    0.61960667794997    2.59998376848186
H           0.73754929184481   -0.54275008531351    1.75578439593585
H           2.12851548741072    0.22596032650729    0.68930985676130
N           0.63342710147173   -0.99241156232135   -1.72157001216149
H          -0.19204365582673   -0.33551619893265   -1.69659747480422
H           1.37958140275793   -0.54838567500354   -1.13696192658159
H           0.27769144277969   -1.89532097018880   -1.27970590870714
H           0.95486434216868   -1.14184019030004   -2.67311955590476
