    26
        -50.44727154  Gyration_radius:  2.50211310604 Dipole_moment: 6.989
 S          -0.77348302515081   -2.26126846005229    0.25013593863092
O           0.47142957926692   -1.69001420372871    0.72912929195753
O          -1.29626765540046   -3.33909689089571    1.00468160195355
O          -1.80898005275392   -1.09177501921357    0.17487108269535
O          -0.62220798055936   -2.62384836474737   -1.23136655564566
H           0.25985931032194   -2.25072841260385   -1.57861640407026
H          -1.77967609535040   -0.70992219081094    1.10763832636527
O          -0.37882385778522    2.13598014192655    1.52183271152306
H          -0.71780237496353    2.97221995279513    1.84258844557411
O           1.54051048332717    1.02910608241345   -1.86631012094566
H           2.31305393096071    1.44796843140988   -2.24853882854861
O          -1.23144972866919   -0.21531049741383    2.49167118141250
H          -0.90810273875718    0.68845933423256    2.27201181444453
H          -0.45502295772096   -0.78177511787836    2.54818281998785
O           1.64647376172802   -1.65260133080399   -1.82451156677682
H           1.55771739315852   -0.68587794975556   -1.99227681953428
H           1.97346181316961   -1.73395459994624   -0.92130607372019
O           1.81529729256374    0.66857587266789    0.71478516134236
H           1.20599370075214    1.28972210192014    1.14233638941030
H           1.39776095357294   -0.20740195745304    0.79962532340112
H           1.69998098390359    0.98493913956230   -0.88328197703133
N          -1.23149830094388    1.61759028127445   -0.91739094841278
H          -0.73674629069771    2.00796558322060    0.58569438066785
H          -1.63305082537956    0.69117338590145   -0.80470785984928
H          -1.90146127441058    2.19080398213281   -1.41379461646101
H          -0.40696603418435    1.51907072580465   -1.50308271835648
