    26
        -50.45207852  Gyration_radius:  2.41623679035 Dipole_moment: 10.174
 S          -2.03164468032220    0.39302736118986   -0.28352510184508
O          -1.42449093180360    1.71158506211602   -0.22036071791459
O          -3.43996732015613    0.32400965268908   -0.45055912272888
O          -1.28782471719400   -0.45762181676759   -1.24953619214358
O          -1.70389015483307   -0.28965092810514    1.13333930386007
H          -0.82211774704368    0.02512608931420    1.39221368068919
H           0.15938361630055   -0.34789672291268   -1.74278527092186
O           1.13919686139886   -0.43458766597677   -1.97290621302084
H           1.16244836904756   -0.81054810997739   -2.85415430122688
O           0.81448804797832    0.27317737839338    2.01170641724114
H           0.78364756436579    0.30773001951871    2.96862369183714
O           0.95739350135695    2.34850615468950   -1.44093304566858
H           1.27235924719981    1.48870871887767   -1.74392007751323
H           0.01287081102623    2.21866553828828   -1.24274360781861
O          -1.12006341274392   -2.71069389612083   -0.04494057373928
H          -1.71519861337968   -2.60083651568249    0.70208296769783
H          -1.31712058892358   -1.92282500319197   -0.62518550964102
O           0.60789001454860    2.67872151995570    1.21456489669453
H          -0.31006569250091    2.56497215937769    0.89794121315811
H           0.83200645598877    1.24541510645102    1.70078485642782
H           1.09614267978919    2.79241599940655    0.37716928853627
N           1.29431244379678   -1.77499377916201    0.30875822020269
H           1.42262826161991   -1.29946557089484   -0.62563166910252
H           2.04752081814952   -2.42401828319192    0.50795681650185
H           1.23304283665517   -1.02881862206929    1.03146867339362
H           0.33705225465323   -2.27010376934231    0.25057133395972
