    26
        -50.46752094  Gyration_radius:  2.47084332498 Dipole_moment: 3.103
 S          -0.34168902894281   -1.46611225951357   -1.44175263605124
O          -1.27082406913770   -0.51060963373601   -0.80213198015048
O          -0.39242497882624   -1.42149893363011   -2.86667613905993
O           1.00961623783446   -1.24413927724316   -0.91054846477313
O          -0.78929437280950   -2.88700396128636   -0.94365850344487
H          -0.86085843981830   -2.81810646795210    0.01805829378630
H           1.59364898656077   -0.06904538391465   -2.04463653204980
O          -0.88765901937350   -1.55396886123441    1.56174644073915
H          -1.09614305675359   -1.08748953919648    0.72456676547295
O           1.46956652421376    0.65398089795575   -2.69004317700761
H           0.92065845117010    0.23883283965687   -3.36624006537234
O          -1.69730351794007    0.88099590548463    2.54650719512285
H          -2.58396072673536    1.02333160720315    2.21307652324632
H          -1.49945284000714   -0.06443486342123    2.39802641004610
O           0.58504142756277    1.93096003382882    1.50311229836647
H          -0.23749615814126    1.71320320684552    1.98645492010874
H           1.13381363497451    1.12879373401083    1.58737985220412
O           1.72043171920946   -0.55040270894379    1.47777757275369
H           1.51993085128109   -0.80640355369339    0.54239510251922
H           2.61935562632446   -0.83336618928574    1.64912058813742
H           0.04052280194885   -1.35137350827035    1.75683920873025
N          -0.19415629950066    1.85346927117423   -0.98930527173872
H           0.19560863524012    1.99919709377884    0.00350698782677
H          -0.74278840408756    2.64981477429583   -1.29424411813979
H           0.56467210124034    1.61999636818481   -1.67964727440833
H          -0.77881607552500    0.97137937889988   -0.93968400691641
