    26
        -50.46655053  Gyration_radius:  2.50713354142 Dipole_moment: 3.953
 S          -1.14243565733976   -1.03174843831861    1.44723955883017
O          -1.99890699394641    0.10470752834562    1.68929471700804
O          -1.01438554160238   -1.40634186458673    0.04787131096015
O           0.16693679220620   -0.88461994763523    2.07235786347950
O          -1.84171909401701   -2.27418142904659    2.14576299298719
H          -2.21944266598512   -1.90185518089699    2.93673716550159
H           0.20443706138895    0.74130786246434    1.58920324523354
O           0.35632372427899    1.64363441269750    1.24907265877296
H          -0.35261331787013    2.16901494680782    1.62765025755914
O           1.14170994375095    0.57005661440036   -2.91843022236143
H           1.85896733613779    1.15425265876303   -3.16792697626385
O          -2.65751186797372    0.61651050745021   -0.85870747653825
H          -2.58297439629738    0.59012952199453    0.11244261851858
H          -2.37922441075052   -0.26439568727291   -1.12990873097915
O           2.58967926131318   -0.26449419558993    1.11030469932228
H           1.86933275242380   -0.62110418815258    1.66538207744232
H           2.44923436733402    0.68852416068480    1.12333824766306
O          -0.39884970950830    1.97762554953666   -1.38884975262384
H           0.48662577254381    1.14186713834091   -2.41779411207044
H          -1.29971838946199    1.59222507648611   -1.32053441939407
H          -0.03565055353001    1.92672465385501   -0.48732561188967
N           1.37442385057261   -1.26671128362346   -1.03680227103510
H           1.98576609247813   -0.88603454136065   -0.26360690445919
H           1.70809079932091   -2.17058799857347   -1.35356475923716
H           0.40052127219899   -1.36780180299316   -0.63071388917157
H           1.33138357233084   -0.57670406377240   -1.84249227725804
