    26
        -50.46655092  Gyration_radius:  2.5070248877 Dipole_moment: 3.961
 S           1.51168043814187   -1.29194156378791    0.71422979192484
O           1.44094857840424   -0.75550218809219    2.05248759735990
O           0.23354879267305   -1.71115827642566    0.16160200322862
O           2.21385744840596   -0.40329438072288   -0.20464860262613
O           2.37636325901809   -2.61985162183561    0.81057942866671
H           3.04278391813659   -2.40575664607353    1.45630775841965
H           1.42120077265602    0.92625335801306    0.49113787060284
O          -2.85452375430272    0.72103460490478   -1.21407636706359
H          -3.14903230979652    1.55880064183722   -1.57380683724397
O           0.92337666500267    1.72437410635009    0.75191383039583
H           1.12153218601384    1.84151664733150    1.68407250617657
O          -1.20780286452546   -0.98211929378499    2.39905634049287
H          -1.27075125289974   -1.61113677064854    1.67290824728701
H          -0.24824510501912   -0.84654243365597    2.50053790102237
O           1.37509195246985    1.27484257864607   -2.11779151966928
H           1.18356378736534    2.00406233875430   -1.51805580923648
H           1.92132860367393    0.66393392943396   -1.58610142181680
O          -1.78687340171283    1.28589629919509    1.07403646805122
H          -0.86360495230745    1.54423875271591    0.90663300351601
H          -2.54098780884366    0.92034135393647   -0.28199284129033
H          -1.72692545351660    0.49634999984944    1.65522585701799
N          -0.63045094778733   -0.47187310119423   -1.98775018526724
H          -1.55841523941428   -0.01271736472071   -1.75295564562070
H           0.10411628991702    0.26523169145839   -2.17154766276394
H          -0.30447523211569   -1.01919896565457   -1.14054528310426
H          -0.72730435964188   -1.09578368583199   -2.78145645845595
