    26
        -50.44745136  Gyration_radius:  2.44169335959 Dipole_moment: 4.426
 S          -0.04571404906920   -0.61942678466529   -2.00837738632201
O          -0.66281228253729    0.54882640470791   -1.42781632438624
O          -0.43156402999213   -0.94627635860573   -3.33012802801088
O           1.49009035656746   -0.46850805005219   -1.92884266836110
O          -0.29741408211867   -1.81556184259168   -1.03938366257570
H          -0.96074849178408   -1.56167962620753   -0.33155104193640
H           1.78576700767256   -0.81489648643463   -1.02048403803483
O          -1.99049181810799   -1.23743286114693    0.82126010525229
H          -2.76960475674259   -1.79009867691919    0.74257736542405
O           2.22812814550374   -1.33614223098210    0.34771600133877
H           2.16775418064990   -2.29275262860674    0.32074070966518
O           2.92513337814841    1.44759784400366   -0.22554443424510
H           3.14817121618833    0.62489088897209    0.22242021018842
H           2.73487821159793    1.20871725521475   -1.13787342699462
O           0.37061425177578    1.81870343566469    0.72554223840830
H          -0.02396680426270    1.46331687088872   -0.09184529078078
H           1.31235249049390    1.94654144265794    0.51317113378276
O           0.44280326837571   -0.49440464934233    2.00758529141745
H           1.56433330201050   -1.03428837092015    1.04728950432876
H           0.38771814259857    0.44252793106102    1.69416284240553
H          -0.41842344613980   -0.88461166013051    1.81270986482569
N          -2.67612470482290    1.25894712943501    0.47860380893594
H          -3.60952575702003    1.64903926697766    0.45742685451158
H          -2.27204044951054    1.32530043315847   -0.45184671277608
H          -2.10261001935065    1.83377198872248    1.08555263312110
H          -2.29670326010957   -0.27210068487411    0.71693445083150
