    26
        -50.45771604  Gyration_radius:  2.39343818317 Dipole_moment: 9.835
 S           1.62201639865722    0.75046213861778   -0.60464959939659
O           1.26638420885720    0.02874465564381    0.62089126524433
O           2.95563348056616    0.50998086870299   -1.05658708913914
O           0.61490046456195    0.14718970047859   -1.71751179886379
O           1.20053143374652    2.14089040407349   -0.52501902552187
H          -0.02933357452385    2.40774187491436    0.33570158043621
H           0.58837680345510   -0.85720393521534   -1.56913513131463
O          -0.93353274891741    2.56598725863251    0.76936802896711
H          -1.04417337096440    3.51796032571926    0.77619953290173
O          -1.83090919560293   -1.44305890914976    0.71309830241691
H          -2.47455564925885   -1.99502740696318    1.15838769532145
O           0.36419960551585   -2.30595868814922   -1.09379825243001
H           1.26581570649840   -2.44346030506599   -0.70991148670925
H          -0.24547081099187   -2.22205218432318   -0.34797332339477
O           2.76546652459106   -2.02722006516622   -0.02732003899325
H           2.32135794516264   -1.33716169604955    0.50062674839889
H           3.30034580130953   -1.50526099924245   -0.63864744823395
O          -0.68577216429162    0.22792134406973    2.33327556849535
H           0.16862807478341    0.13563739458031    1.85445419562685
H          -0.94847204190894    1.13865054586782    2.14873766712944
H          -1.38835207328543   -0.88810185414212    1.42301431453961
N          -1.80544598236611    0.69688991771564   -0.88138497025463
H          -1.66668223988499    1.50799412488104   -0.22055517724897
H          -1.99897330815913   -0.17480637790378   -0.32944783559216
H          -2.52533238597341    0.87817282915795   -1.57239725802861
H          -0.85665088160702    0.54508904846333   -1.33941644443379
