    26
        -50.46653510  Gyration_radius:  2.39612343455 Dipole_moment: 0.610
 S          -0.27919969008766   -1.06931119205129   -1.18348942096519
O           0.95152598391755   -1.13191521723983   -1.93562094381106
O          -0.20169442817744   -1.70985390322053    0.12113383810978
O          -0.84700659432240    0.26339563757864   -1.08860822978101
O          -1.34153648679942   -1.92360723653048   -2.01983357691547
H          -0.80754329405334   -2.47827349146471   -2.58097550341727
H          -1.78751259749675    0.96282793534516    0.26042789166670
O          -2.12059431222741    0.95922149046025    1.17733815142210
H          -2.62519172366051    0.12336836924423    1.21916725755648
O           1.67784157269757    2.27325511702643    0.80246615655346
H           1.18889093659544    3.09171469459888    0.90529589008803
O           2.43696336973044   -0.56982674270988    0.27341670756907
H           3.06471231194814    0.10433021222997    0.00464722319223
H           2.01557517535051   -0.90409396329425   -0.53239031133496
O          -2.81844880236389   -1.59217396712849    0.63225985619110
H          -3.20259435113558   -1.70058908008322   -0.23991341323147
H          -1.86600234081265   -1.77138326795306    0.51804549686335
O           1.30432982335932    1.64614877148029   -1.76015461148416
H           1.64691277868157    2.06481415823123   -0.16167817853105
H           1.76031169299633    0.90578430434395   -2.17243692393506
H           0.40605715692958    1.29672294246971   -1.60034922770566
N           0.29645485029460    0.23264928471708    1.90095996872674
H           0.54182682857487   -0.01866479285954    2.85232020725157
H          -0.70434236256916    0.59305176978188    1.80570099282285
H           0.95864368481464    0.95926292305999    1.52253338681286
H           0.35162081779811   -0.60685474604124    1.27973730628252
