    26
        -50.44680701  Gyration_radius:  2.6751771318 Dipole_moment: 6.879
 S          -1.84145055460672    0.98851654968320   -1.95909246646139
O          -0.68615059518822    1.88870263644666   -2.14227822162074
O          -3.00413780072279    1.32943046454143   -2.69811455428906
O          -1.35174387644875   -0.42952670089646   -2.44877455838993
O          -2.09074991248767    0.83067520078244   -0.50129581409612
H          -1.73645438589632   -0.52542024391474    0.22124171513093
H          -0.45676438061120   -0.55701558882889   -2.08505567632992
O           1.74197914813719    0.92531843418529    1.02245470150364
H           2.66750275263714    1.01565365482061    1.25049932196857
O          -1.36893182932378   -1.37112874860566    0.60212989006917
H          -1.97982870340148   -2.05957031379598    0.33582387542119
O           0.82293949116639   -0.91606496430225   -0.89245291856538
H           1.20895784290698   -0.12553482291769   -0.48317602288941
H           0.07174655231980   -1.17260101509152   -0.31363340342551
O           2.22682881825873   -2.65403695814345    0.70619136365876
H           2.24094561228244   -3.57124339294021    0.43214639971775
H           1.88359986485899   -2.13843634392262   -0.04849119626144
O           0.74946989130680   -1.05659117831541    2.38916074526638
H           1.32205294710362   -1.75425708115107    2.02255879408382
H           1.37038337033292    0.22296713416573    1.63312828455550
H          -0.12382182569130   -1.20209808870072    1.99363969826685
N          -0.30886352652554    2.50678005399998    0.23968396862299
H          -0.44049916540099    3.45611622231379    0.56675802280477
H           0.53428200467355    2.05865786112768    0.64247848262422
H          -1.15095843266107    1.89958653294659    0.37818951987825
H          -0.30033329733065    2.41112069649525   -0.86371995133426
