    26
        -50.45514047  Gyration_radius:  2.75127539518 Dipole_moment: 5.669
 S           1.24360722508579    2.42908343483174   -0.98507773227329
O          -0.20387489671438    2.66937318312621   -1.04366823073791
O           1.66690046917404    1.90388605918328    0.28795234693672
O           1.67874508986824    1.63005557365125   -2.12254665745888
O           1.92298564583281    3.85318766629830   -1.15370826147379
H           1.61941410299195    4.12434242885093   -2.01486191540116
H           1.13090014739310    0.15265886549020   -2.10772913683621
O           0.66950618078126   -0.73367715878975   -2.10581335152451
H           0.68131164325258   -1.03199849238176   -3.01634021957452
O           0.56033557504403    0.00871899621105    1.72722414245785
H           1.09199271302401    0.75449988834285    1.37356104502835
O          -1.82665784205583   -2.29392726416937    0.47579489832056
H          -2.25621382684206   -3.14517131964093    0.56404095875312
H          -1.85118375360572   -1.87732645983703    1.36349971797775
O          -1.64549116585063   -1.05364149037054    2.87578625724474
H          -1.43960281938218   -1.52552856300888    3.68406226487777
H          -0.84745223158909   -0.53894876490116    2.65295531904236
O           0.96149184002433   -2.17895728443743    0.26231640031024
H           0.94792648013369   -0.80937899316250    1.33699155377963
H           0.01186396375993   -2.38869140259010    0.26801442008317
H           1.12771880984790   -1.78365503027093   -0.60582898387645
N          -1.08400730729045    0.36045582463491   -0.34433721376649
H          -2.07186684141336    0.14847928404090   -0.24815750753355
H          -0.87413586922878    1.37377713424046   -0.62987006730772
H          -0.57173142616448    0.19756758161923    0.56777191659711
H          -0.64248190609846   -0.24518370698553   -1.06203196364985
