    26
        -50.45583329  Gyration_radius:  2.47516417532 Dipole_moment: 7.446
 S          -1.35393838050935    1.27379004012208   -0.30431823722536
O          -0.94947786381717    1.19128417468537    1.11511248441117
O          -2.56422400330117    1.98043424707527   -0.52139653574525
O          -0.18013381524559    2.06489107038615   -1.01417270641646
O          -1.29844212053032   -0.08116920088020   -0.87421647671120
H          -1.97193388213816   -0.96695714876830    0.38263164222849
H           0.54322344759970    1.43100557787094   -1.16751953378875
O           1.77367291326136    0.21972356448149   -1.57191077460803
H           2.44328925424032    0.67546579113507   -2.08416917364072
O          -2.20174675198600   -1.36316001023967    1.24970707571995
H          -2.29599782359067   -0.60923551060805    1.83824930500628
O           1.48880954721507    2.34296020394523    1.53952279219217
H           0.53795977659672    2.14549375772463    1.48482797147570
H           1.58923114073163    3.22836740374184    1.18885935166996
O           0.00979109590214   -2.73945686349593    1.66593608131658
H          -0.88691363600218   -2.31658481809489    1.61498621056661
H          -0.03158868529747   -3.51132585459495    1.10002344535354
O          -0.12037297456033   -0.76097458807287   -3.08507365074967
H          -0.34758396542273   -1.67456060849292   -3.26504561756660
H          -0.71687195086373   -0.47220368753527   -2.35203150531685
H           1.16513398484906   -0.22004967558661   -2.22065116175914
N           1.09697498830408   -0.38829295536793    1.05715284143805
H           0.20062424764861    0.20683144225515    1.10634572821867
H           0.84484008457556   -1.37729570578691    1.30732799100845
H           1.46876018990527   -0.31124381268918    0.10070925651332
H           1.75691518243420    0.03226316679021    1.70911318640470
