    26
        -50.45480222  Gyration_radius:  2.46585172895 Dipole_moment: 8.335
 S           1.44619538223157   -1.42270153330612    1.00351267527689
O           1.53629374645226   -0.29857093179026    1.93689331818221
O           2.32193832172239   -2.51014824127845    1.26474621560667
O          -0.06406929104646   -1.95064257162944    1.16919330868991
O           1.48275511559636   -0.91275481443700   -0.38320791353676
H           1.33863973347242    0.57610996911815   -0.17675654285871
H          -0.55145941336217   -1.72054920131758    0.36108804193315
O           1.14999332179878    1.55114288279813    0.02683373269503
H           1.61124962621649    1.67388283701001    0.86350791872298
O          -1.72472351412144   -1.13154032049812   -0.84477666117726
H          -2.34512177336518   -1.80979893106383   -1.11263206406145
O           0.39413144974667    1.95662908235976   -2.59232459116080
H           1.09548431015957    2.25666732731313   -3.17263507677417
H           0.75289841357747    1.97779087633751   -1.69068920377718
O          -0.76057888536596    0.01977052595092    3.00810198900341
H          -1.06777740282052   -0.88799862259552    3.08079245814214
H           0.19696760851123   -0.07627982185830    2.72673925583300
O           0.07090120704726   -0.77360987558303   -2.63213729657310
H           0.11439053006421    0.19052512228774   -2.77983359166069
H           0.77292638133686   -0.96330116917153   -1.97956896262506
H          -1.07933801789649   -1.00953405213451   -1.61720599337542
N          -1.36538681294639    1.07003569180221    0.70022177297760
H          -2.01672341185667    1.84699850407344    0.67892036885253
H          -1.67709938177868    0.30181750695499    0.07750509363899
H          -0.39293848588169    1.37272052029457    0.38749676445299
H          -1.23954875748503    0.67333926029475    1.69621497362614
