    26
        -50.46390766  Gyration_radius:  2.57649754371 Dipole_moment: 2.935
 S           0.37234337856964    1.09462147222042    1.17844965822317
O           0.99800453773074    0.95776309727049   -0.14672874545470
O           1.30580094257196    0.86129752488028    2.24946550880765
O          -0.15656538105907    2.54811433688383    1.31105047010295
O          -0.78176488638068    0.18158715383427    1.25218519548940
H          -1.88064659919272    0.29597048521017    0.13609225415232
H          -0.69329771671216    2.76107258157545    0.50534657311103
O           0.39260103237384   -2.60702111901555   -2.05215390975530
H           1.00034823031530   -2.81032994372894   -2.76403201656551
O          -2.54101953106887    0.41107894493212   -0.60557648045986
H          -3.35102358513379   -0.00587588407701   -0.30847799943215
O          -1.79207762414634    2.99822126553012   -0.69471827875946
H          -2.50876723621788    3.55233137876767   -0.37889108136054
H          -2.15614984289057    2.09790448206683   -0.81600179878976
O           2.59109870038804   -1.44251219351745    2.44924601842660
H           2.11943121469882   -0.57989535476959    2.52051591526283
H           3.51564699403854   -1.24462034395476    2.60511638549308
O          -0.35376669728218   -0.08039190691463   -2.27134662411980
H           0.04471078644958   -1.69620555482717   -2.24124699350207
H          -1.25618082392179    0.04307280334711   -1.94509955797542
H           0.20339470244744    0.42613103749295   -1.65079483077654
N           1.00067565802439   -1.60001781173442    0.32792623013970
H           0.11133079343446   -1.42673297903413    0.82186714690256
H           1.23510782764107   -0.62426803992363   -0.00977030877361
H           1.71790306139253   -1.88130887306753    1.02623291973893
H           0.86286207396005   -2.22998655949374   -0.49865565011806
