    26
        -50.44072272  Gyration_radius:  2.66747761618 Dipole_moment: 8.115
 S          -0.51010298645791    2.58433172923278    1.28630219597459
O           0.76323767490822    2.32870098011329    1.90149331351845
O          -0.92349684307481    3.92631409153632    1.11887140045016
O          -0.51290431240474    1.83864372666733   -0.09966477846189
O          -1.62325613943993    1.82111547205503    2.05516929654641
H          -1.40709021469798    0.85020041285055    2.06443934614606
H           0.38652254998027    1.39461983819430   -0.17393592361029
O          -1.28107526040420   -0.75544460976846    1.84473511639907
H          -1.94581918992597   -1.18682342095685    2.38410187989295
O           1.82914030219234    0.80106082710760    0.05988906593034
H           1.86402178195029    1.37360694344479    0.84730129203955
O           0.36849013533872   -2.15843398149638   -1.77135512371435
H           0.65387066115295   -2.94698634747706   -2.23478726304399
H           0.91135363782732   -1.41712503842417   -2.12118411288144
O           1.98714636508321   -0.13329107430992   -2.50806590947597
H           1.97779866518636    0.37608648663663   -1.68003390893609
H           2.91051887763412   -0.27644308393999   -2.72300327036352
O           1.16217125698758   -1.61636396633655    0.83455207641664
H           1.69021131806120   -0.12293321867474    0.40853578381604
H           0.38029436530837   -1.40722725666427    1.36806773504124
H           0.82882812948059   -1.95044245198307   -0.01669562252392
N          -1.96156107670650   -0.68870903399981   -0.66623227352581
H          -1.61067919629652   -0.78136162331730    0.87813024619627
H          -1.72643622546042    0.28053357700352   -0.85700080354023
H          -1.31403326146680   -1.27040947466641   -1.19108210107672
H          -2.89715099475812   -0.86321953282795   -1.00854764720821
