    26
        -50.44596055  Gyration_radius:  2.52166012929 Dipole_moment: 3.879
 S           1.11548180733308   -0.31905003869565   -2.18955031262040
O           1.74851581626472    0.81317488469565   -1.55078312650745
O           1.77794988572942   -0.88401828740430   -3.30322068885174
O           0.87079859227971   -1.38924265770605   -1.08329426032656
O          -0.32241773600364    0.07076421043812   -2.60662861634102
H          -0.88700666377925    0.21422281866108   -1.79261635947663
H           1.20164007312330   -0.98811417211391   -0.21016444521445
O          -1.84217957214426    0.25119624424132   -0.52672124409873
H          -2.74582498493123    0.40274958181824   -0.80776141812792
O           1.73771243424580   -0.16290757005016    0.97073837336599
H           2.32295686442342    0.37261340301694    0.42278645107723
O          -0.31139537542028   -1.13391215468539    2.83715113023403
H           0.62362473010443   -1.22168584531192    2.62897984934667
H          -0.50773787955990   -0.19370198863275    2.75153195922554
O           0.76567174750506    3.04226613462598   -0.44134021626101
H           1.33924644213178    3.77849731119984   -0.65599531860713
H           1.11485479507725    2.27102212806668   -0.93047047426341
O          -0.32017409164774    1.42528470909334    1.41990323333613
H          -0.98014963589948    1.07279111868227    0.79710758497179
H           0.98038262569593    0.44229609876089    1.20573318574549
H           0.02872240007050    2.21378267819889    0.96761456419439
N          -1.57200184836837   -2.11684288254544    0.44991696040056
H          -1.79257986066300   -0.71315510509047   -0.15380376184772
H          -2.31580404159366   -2.79974110941280    0.50408188736680
H          -0.81162383313613   -2.50379411893897   -0.09739838470290
H          -1.21866268082957   -1.94449538090368    1.39420345794698
