    26
        -50.46626575  Gyration_radius:  2.38230423402 Dipole_moment: 3.610
 S          -1.17712350155649    0.79931415733627    0.55914534398371
O           0.17740838646946    1.35014236034566    0.41267843609249
O          -1.24789043876568   -0.40907842237295   -0.45954524362599
O          -1.41080846063646    0.26084157206775    1.88072329029153
O          -2.16338356705652    1.74468205408473    0.06271349873727
O           1.71420776391327   -0.32385629424390   -0.99216325279811
H           1.78648812942183   -1.11600311709749   -0.44232580970900
H           1.22302705351392    0.31425072526756   -0.43736063189218
O           1.12149051296522    0.12933743745858    2.68889534199959
H           1.42130325138084    0.85975621946386    2.13717010730659
H           0.14732776515946    0.16962346631295    2.60051264721906
O           1.61600075429973   -2.03828959608962    1.27284497276333
H           2.24802424866640   -2.60991956718165    1.71050223210341
H           1.51488193440144   -1.23537456850016    1.85070334223357
O          -0.07733292665192   -0.12701632992032   -2.94499804873391
H           0.71734126048759   -0.28366396477387   -2.37611670631050
H          -0.77196285365032   -0.63990776251701   -2.51584364370864
O          -1.07828031672372   -2.36211975461101    1.18873341256850
H          -1.23218857740094   -1.25850040569976    0.07496756476047
H          -0.10302996622878   -2.42985138563619    1.23380538798181
H          -1.34098383389681   -1.71794655150503    1.86222376712683
N          -0.62074611667250    2.21677893342540   -1.91617248277477
H          -1.46830281146269    2.08864964226964   -1.26501833720941
H          -0.67465913401904    3.04573832480677   -2.49906151207034
H           0.13125669285548    2.26177135701264   -1.20931929741715
H          -0.45206525879548    1.31064147039759   -2.47769440892593
