    26
        -50.47114474  Gyration_radius:  2.4107122177 Dipole_moment: 3.625
 S          -0.75300744980282    0.43407886383627    1.80723458177605
O          -1.00886136354893    1.60668759612913    0.98748103784643
O          -1.44914824195377   -0.75437147727759    1.34255070131072
O           0.66730343003481    0.19993536418448    2.00407640214723
O          -1.36196990155517    0.75206786023439    3.23418312756330
H          -0.93117085794550    1.56901316856038    3.46160975794669
H           1.10006631669469   -1.90452796091625    1.76966132623805
O           0.55039920194764   -2.41082106532129    1.15937554086935
H          -0.32242475270314   -1.96352309448753    1.23835781564614
O          -0.64062606192747   -0.12694276967429   -2.44547223359896
H          -1.02109031329881   -0.27565978363872   -3.31186960120462
O           2.39781609670612    0.69687487408963    0.04681572994424
H           1.89672767908725    0.58527142210223    0.88267541906980
H           1.90775726840549    1.40685397157907   -0.43257919315615
O           0.54149516127233    2.14715042414713   -1.14817571832381
H           0.15630733491693    1.52995251755131   -1.78454219197899
H          -0.03401244437112    2.10526822733622   -0.36054126515428
O          -2.56784616408703    0.33302820510150   -0.76390842999177
H          -2.40350801891458   -0.31514407421222   -0.05355117991059
H          -2.27286573088382    1.15628558532860   -0.34351552647557
H          -1.41630921163207    0.01889422054310   -1.82611740666588
N           1.39604552835852   -1.37978338220000   -1.11940139089648
H           1.02909117721748   -1.91823011644995   -0.27790919776653
H           0.60470217688971   -1.01135076301501   -1.68214457980499
H           1.92799945985558   -0.52474119754260   -0.69768314788908
H           2.00712968126016   -1.95626660597339   -1.68661037754502
