    26
        -50.46731836  Gyration_radius:  2.491874467 Dipole_moment: 3.584
 S          -1.50169989748434   -0.96886897293689   -0.93801765143901
O          -1.50358009254604    0.46244307356730   -1.22659376946741
O          -2.75114930198028   -1.47676191578785   -0.45290170968287
O          -1.25154833080281   -1.68431933741872   -2.35997948613298
O          -0.33593430727159   -1.34182582964858   -0.15205730153499
H           0.83188612684881   -1.27333668719822   -1.31732206300622
H          -2.13812230608943   -1.83702933439099   -2.67095119771290
O          -0.52797851676427    1.51574783758588    2.72420009615552
H          -0.84123371857291    2.38972080812890    2.96325452154042
O           1.57837380181534   -1.12355345169449   -1.94021250048496
H           1.26559187549736   -1.45713162334805   -2.78277907569267
O           0.93169646853646    1.44704709668594   -1.33771881636343
H           1.36584662963905    0.66219169283932   -1.72320107711331
H          -0.02463090453650    1.21050976490409   -1.34113040776473
O           2.09274443186803   -1.45837753966739    0.97248560396811
H           2.50902532096327   -1.58896165369841    0.11324385693377
H           1.14842765596356   -1.63143957215129    0.81144093270473
O          -2.52029520688252    0.67773624496537    1.21039163167812
H          -2.21054628036852    0.85061867501823    0.30356649120863
H          -2.88870422016182   -0.21121848848681    1.14515690743857
H          -1.27442402289737    1.09873267912454    2.22826741693635
N           1.62345231164963    1.16315522842613    1.16747206110130
H           1.33555165442811    1.36950258994001    0.15015949309148
H           0.79754669667817    1.31675379280337    1.79956661825047
H           1.88736890544491    0.14138510319972    1.20253573861369
H           2.40233520702487    1.74727982923317    1.45112369678737
