    26
        -50.46489266  Gyration_radius:  2.41537443255 Dipole_moment: 8.722
 S          -0.74736941862242    1.66725088220792   -0.53208095027550
O           0.62250710280725    1.18504934597192   -0.30894781365838
O          -0.85655676502383    2.68294110668397   -1.52041381019335
O          -1.64390725109935    0.51380780249556   -0.74939741532013
O          -1.19351096848881    2.26356139045077    0.86149662832774
H          -1.11939778423522    1.52813738479231    1.49259891510887
H          -1.19825723214108    0.35972613718396   -2.45153430648097
O          -0.66130695277070    0.43776320772581   -3.25481949258572
H          -0.52793511587209    1.38569363085206   -3.34891414798436
O          -0.71341404436862    0.23522606420717    2.67783678102115
H          -0.78288246623931    0.62132687753499    3.55266500477432
O           1.56656120544287   -0.60700779844584   -2.05209852961718
H           1.38785354573123    0.16243567210104   -1.47955465873623
H           0.88567577805703   -0.52635411037677   -2.74084963483893
O           1.34841509243205   -2.16619239162667    0.04354801751417
H           1.48425419807609   -1.72534595553809   -0.83884871379869
H           1.79538299655576   -1.58840616081199    0.67868057277870
O           1.75016086903826    0.09045016340855    1.70517918337451
H           2.51803650227536    0.61530638554565    1.93619052816593
H           1.35740571595784    0.52917211610497    0.89654214906099
H           0.24817883853997    0.16825336412516    2.46584798944251
N          -1.11773524421836   -1.59204043477058    0.60493603784908
H          -0.10654552743370   -1.90811054669785    0.36035407957437
H          -1.35392278711254   -0.73528459486397   -0.01451394701212
H          -1.78661969003025   -2.33694947632750    0.44377287630032
H          -1.15507058727317   -1.26041004194715    1.57232466721683
