    26
        -50.45499939  Gyration_radius:  2.50026068747 Dipole_moment: 4.586
 S          -0.70883561501430   -0.22576322280138   -0.81577884172863
O           0.68914861515367   -0.64455054716596   -0.70071746859982
O          -1.12568967666866   -0.30490001251020   -2.29672070892459
O          -1.57607422452896   -1.12842018948698   -0.06737569725657
O          -0.86683505156933    1.15437002482315   -0.35621087072444
O           1.73089745774754   -0.00392922609156    1.54759400853991
H           1.33435648633581   -0.19302750406909    0.64618565958497
H           2.42892184472124   -0.65269810213924    1.66438417417742
O          -2.08847475193032    0.73922276167039    1.85289985263816
H          -2.64093843174746    0.03554283367072    1.49195331329563
H          -1.61478866220356    1.07874691561835    1.04218156687150
O          -0.66246987823069   -2.67922363991203    1.75285371771893
H          -0.95416411269378   -2.17632212589163    0.93971499697480
H          -1.36998880858509   -3.29429805250088    1.95438469813504
O          -0.25814224811698   -0.51803302771006    3.00536197791880
H          -0.43134625550080   -1.46386881242836    2.63618981461983
H           0.60069669118278   -0.22173271452761    2.49625682648520
H          -1.04497703575113    0.07928002488536    2.60525360177772
O          -0.28717088518826    2.04344649282457   -2.82805220159218
H          -0.51198251804570    2.21540334547734   -1.90118013619243
H           0.68388645133078    1.85508397676585   -2.82720876256468
H          -0.84966292129616    0.58833097636200   -2.67521249359797
N           2.19276708128415    1.09722423387483   -2.40072611802301
H           2.71098877387100    0.61765798911324   -3.12568315358375
H           1.76444345598633    0.38822599827044   -1.80362329298946
H           2.85543419945972    1.61423159387304   -1.83672447296229
