    26
        -50.45989264  Gyration_radius:  2.45053141417 Dipole_moment: 8.210
 S           1.45821947068294   -0.65842743452885   -1.80966963888279
O           0.06200922017955   -1.16239636949068   -1.84637995355337
O           2.42163199774007   -1.63996316107374   -2.16217275799645
O           1.50683558938190    0.51750444012069   -2.85179125740474
O           1.69133594412995   -0.04472087785316   -0.49492053320754
H           1.49766415251134   -0.71040288718651    0.91143448843937
H           0.79964227682018    1.11297060210765   -2.59859170176197
O           1.24283550312500   -1.16279721430050    1.76576426173084
H           2.03046180226741   -1.62006332276631    2.06297552940900
O          -2.33454515741053    0.41245951510054    0.88104314158234
H          -3.13524435749649    0.63189310800904    1.35790411402789
O           0.84333799590713    2.41216383529183    0.11298337176268
H           0.10920462624546    2.37721685367020   -0.51930593413832
H           1.36755481353723    1.61556556350910   -0.09385324034274
O          -1.03138931603404    1.22049512256446   -1.54805655554557
H          -1.68550053304607    1.12507826783380   -0.84250268793325
H          -0.74608925885437    0.30759174163990   -1.74709138364635
O          -0.28055376001183    1.22897426239170    2.20070536119642
H           0.16608211928921    1.81649387621522    1.53991124456200
H          -1.56973224717534    0.79211457675723    1.42315428014540
H           0.31053920579147    0.47126395120658    2.30263828072310
N          -0.96352995615258   -1.83557738259940    0.40679761365139
H          -1.40303690223680   -2.74879077415765    0.42741331086409
H          -1.64702267573726   -1.06521768607468    0.60589847563355
H          -0.17327674355891   -1.76125637914207    1.08505043734740
H          -0.53743380989085   -1.63217222726191   -0.56933824664962
