    26
        -50.46489274  Gyration_radius:  2.41548642446 Dipole_moment: 8.726
 S          -0.81633231098901    1.35115567820549   -1.06235761917857
O          -1.01811585615916    0.87052915419303    0.31131390035653
O          -1.11103832397126    2.72898756492258   -1.24947460415280
O           0.52676338734107    0.95145951334428   -1.52930269388402
O          -1.81524357701371    0.49420600927593   -1.93684150904352
H          -1.55918455837687   -0.43155053546952   -1.78851881596498
H           1.32318277246439    2.30558688867593   -0.72077813551370
O          -1.24164546469539   -2.13108070656235   -1.28546118941780
H          -1.95209631081500   -2.66871880920039   -1.63949522237984
O           1.46282362051866    3.01499234173586   -0.07514007315332
H           0.70163484461900    3.58980733369065   -0.19959749773048
O           0.93810817416213    1.38057012965158    2.05887933068382
H           1.44537494962701    2.02716180723701    1.54011495736386
H           0.10548835869022    1.30458695292661    1.55627728520507
O           1.24339450442412   -1.21584111377331    1.86866431896415
H           1.27222126740369   -0.23758260376556    2.05165595767075
H           0.31563892927725   -1.46241681157613    1.99304497771555
O          -1.51234886486885   -1.44811494775479    1.26337637451244
H          -1.33429945137835   -0.51919687572204    0.93768509151917
H          -1.42009534664533   -2.01246745111165   -0.32202111133498
H          -2.31378826051634   -1.38915032089359    1.78553562112496
N           1.37146403068964   -1.32354551005394   -0.71952784447274
H           0.64890930067477   -1.96943965953920   -1.04780298393340
H           1.06851457093769   -0.33927725964240   -1.05578590365148
H           1.39050278812263   -1.31002223482314    0.36751984644667
H           2.28016680660247   -1.56063854390803   -1.10196246773181
