    26
        -50.45208468  Gyration_radius:  2.4322019952 Dipole_moment: 9.809
 S           1.45223388634211   -0.36791147685732    1.64873594489162
O           1.96736610874289    0.96418694548171    1.85106173325967
O           1.62123670833981   -1.33263565453415    2.68996002691692
O          -0.14735308604358   -0.17202457421903    1.50531138267639
O           1.83367921612012   -0.91611642917498    0.32407892630666
H           1.27550765582373   -0.51674002239088   -1.01534516362925
H          -0.20763289385987    0.76747681716395    1.25756069816163
O           0.82720927995894   -0.39154113008649   -1.92074676318033
H           1.41153106297051   -0.82981226188779   -2.54174769753577
O           0.05873933168988    2.35029349322306    0.66881802646732
H           0.88595524837491    2.12972535627973    1.15120172190174
O          -2.36725208503088    1.09326734705413    0.15837797976960
H          -2.77126089409377    1.07616908592278    1.02841008174453
H          -1.60215068815099    1.69282815621373    0.24035669330665
O           0.11850219284445   -2.79142025944279    0.85694349273633
H           0.13139308454663   -2.69801520293456    1.81678000383603
H           0.90908478260347   -2.26153079854535    0.60144305860559
O           0.56517786553171    2.32537844956594   -1.99064007930512
H           0.72913740551984    1.36472143893702   -2.03898480723334
H          -0.17653465917314    2.51411049198393   -2.56727484302279
H           0.33986820458003    2.49390809681905   -0.25803690996230
N          -1.39888179862113   -1.30737974743411   -0.70202517291346
H          -0.63078025885777   -1.00559221351572   -1.34465904193915
H          -1.80163581156499   -0.43709586712786   -0.27647531155720
H          -2.10827626917921   -1.84103463670161   -1.19355288330178
H          -0.91486358941466   -1.90321542378967    0.05044889299225
