    26
        -50.44032611  Gyration_radius:  2.57021671491 Dipole_moment: 8.481
 S          -1.90100606578360   -1.43490732144692   -1.02590439859503
O          -1.51033762505937   -0.08098929167208   -1.33147719527003
O          -2.80849137211863   -2.06426074736578   -1.90956361641668
O          -0.59902943830312   -2.27807468724119   -0.87820697060889
O          -2.49150344836234   -1.47218534356207    0.40784548619701
H          -1.83164204027380   -1.09302683533511    1.04388354732894
H           0.20601329560965   -1.72145912647180   -1.07829852562124
O           1.61801249721805   -0.99713163015051   -1.27865488968032
H           2.25853624739887   -1.65404850627884   -1.55732342159393
O           0.28467082985526    1.87138680532980    1.76494325343369
H           0.07879396834621    2.63853469224512    2.30093265575190
O           0.65059808434591    1.25718847715276   -2.66624792511412
H          -0.23324854847883    0.87996810998016   -2.74332226878022
H           1.16905861579905    0.55869922292583   -2.24395938797039
O          -0.88672130906683   -0.47716566601955    2.21823803920058
H          -1.47880951342514   -0.35550746492298    2.96287731877451
H          -0.48114888494293    0.40547889750029    2.03042022647091
O          -0.68605087467496    2.37547313481422   -0.57415145062020
H          -1.22442650074136    1.58475649393797   -0.74871380969639
H          -0.04407094158581    2.09359974989129    0.84147759860985
H          -0.02545351374107    2.33937174070398   -1.29064834561179
N           2.04085440291637   -0.46555237156359    1.25162458531518
H           1.73264813130917    0.49068429585958    1.40350493142584
H           2.94920848796568   -0.57649318405032    1.68362502986855
H           1.38129290212932   -1.06518992705475    1.73469795107338
H           1.83225262557925   -0.75914951718531   -0.31759841787069
