    26
        -50.44426882  Gyration_radius:  2.64962236593 Dipole_moment: 10.001
 S          -2.43587545609340    0.11753947420410   -1.86065421029122
O          -1.23953913894776   -0.65010209896469   -1.61807381625415
O          -3.29797517283323   -0.31048728413226   -2.89598188706396
O          -3.22402402378251    0.14647345319374   -0.50542357121078
O          -2.03831323436231    1.59292263647995   -2.08880741549484
H          -1.37145857335703    1.84217555661502   -1.37599437222840
H          -2.55162722910128    0.06941382420181    0.20942544087395
O           0.30724702837686   -2.04166707371043    0.92240059050003
H          -0.18123600874318   -2.84682272395468    0.74274475201294
O           2.15483329051980    1.11535522033054   -0.47849057867065
H           2.89655395253518    1.70156529348657   -0.63091992391704
O          -1.36916725962662   -0.07137338086661    1.38274115295353
H          -0.74607518676384   -0.81786245447465    1.15621800226266
H          -1.77814883439236   -0.29317399253313    2.22108529586375
O          -0.39172195653108    2.01723745085877   -0.16460571777905
H           0.51241950621754    1.73785631905059   -0.41020030938101
H          -0.69184047422921    1.37735376429958    0.49752996493511
O           1.30696718862104   -1.37031769647288   -1.38252343475399
H           0.41139418097845   -1.18354238385151   -1.71504545321611
H           1.71253788756413   -0.49905041579968   -1.25145688092190
H           0.74989852659584   -1.81394302588929    0.04840022604437
N           2.27448205156819    0.00709984410413    1.96066205302670
H           2.25083157771929    0.74233133999239    0.44131316318462
H           3.18256856579769   -0.32063036737253    2.26457649871491
H           1.87366466909903    0.55904146494817    2.70856789593008
H           1.68360413316809   -0.80739272373314    1.82251254487484
