    26
        -50.44427421  Gyration_radius:  2.44140446931 Dipole_moment: 4.999
 S          -1.73123994135508   -0.51301137502247    1.02096423658644
O          -1.23628738226293   -1.57837952850106    1.84896456354184
O          -2.95683503060734    0.11143164375318    1.38220281685275
O          -0.62236332622362    0.57349805827488    0.94316662180063
O          -1.87185832806232   -1.02135905306126   -0.42805789376343
H          -0.96017508092764   -1.12873296097903   -0.88410875522363
H           0.23425456044006    0.29011021826346    1.37525434975155
O           0.36405354672254   -1.14350180513577   -1.58283682688478
H           0.23692756730691   -1.47884519127295   -2.47154491072439
O           1.58739300753138   -0.23313384945511    2.03893465892300
H           1.38808825502530   -0.40366597073699    2.96180565390923
O          -2.49652297474435    1.69958770901601   -0.83455499825769
H          -2.68759689452543    1.33724843069876    0.04260937593719
H          -3.07279653461020    1.22297313293648   -1.43586535936654
O           2.61607550644443    1.59716228669624    0.13386471137167
H           2.30055556786483    1.11084809053747    0.90728300318473
H           3.37676226285691    1.11415108225585   -0.19408391299366
O           1.07204344757119   -2.42666506969646    0.77269805402229
H           0.96507738674934   -2.12920727586188   -0.14452979944750
H           1.57077513460030   -1.12578371802070    1.58194703003988
H           0.18253110844068   -2.39471473331208    1.17442196473555
N           0.34826828544956    1.38341734894856   -1.67777791352371
H          -0.56349740700492    1.62851479290742   -1.28981914784083
H           0.46999402049361    1.87331446777619   -2.55455843672459
H           1.06560867690314    1.69840700432166   -1.02481163294972
H           0.42076456605890   -0.06366372540385   -1.66156746307853
