    26
        -50.44427416  Gyration_radius:  2.4413281252 Dipole_moment: 4.997
 S           1.00702445879228   -1.76999599138571   -0.39459449218252
O           0.01829132417824   -2.46004754763538   -1.17683539538514
O           2.35659919083183   -2.21263965591410   -0.46671485805828
O           0.95315437828400   -0.26804196354223   -0.79138221514030
O           0.58398079783196   -1.79027980704147    1.08811054924977
H          -0.19640316896856   -1.15120267374152    1.27063808508423
H           0.19694211586883   -0.05375448883020   -1.41032319791570
O          -1.05136314885463    0.23640426283680   -2.36029658238093
H          -0.91568892666520   -0.28714384869918   -3.15275944519168
O          -1.23674042384661   -0.11171395442721    1.55105789882900
H          -1.48222535262428   -0.16714544330456    2.47576335145401
O          -0.75620065664554    2.76057497077615   -1.10462036421571
H          -1.67261653571240    2.99582875367553   -0.94865037289938
H          -0.77146200537962    1.98377134288830   -1.67963610563046
O           2.85562776915198   -0.12901039009724    1.28198996172100
H           2.84763324435186   -0.76987453281292    0.55642106289999
H           2.86756477378426   -0.65559429994656    2.08410415929943
O          -2.34481180824604   -1.27529005962964   -0.71050506331935
H          -1.70899723258499   -0.27328905088034   -1.80016247045380
H          -1.63868960644815   -1.93784328860789   -0.83735242135151
H          -2.17325314250784   -0.85865706936098    0.14868546096400
N           0.50262264508585    1.70633076623549    1.29862224480301
H           1.36989912633440    1.18574140010731    1.16161800791014
H           0.28400587770381    2.19247034585090    0.42913589867480
H          -0.54330589092137    0.71689713306093    1.46099478403625
H           0.64841220706528    2.39350508025833    2.02669152922079
