    26
        -50.46004192  Gyration_radius:  2.46856695588 Dipole_moment: 6.450
 S          -1.96045739912262    0.39273481469322   -0.65294780810900
O          -0.71134793401867    0.82906891637665   -0.01957807301733
O          -2.10853238166789    0.96620986222482   -1.96692983730336
O          -2.07365241360824   -1.05734860914522   -0.61773921324710
O          -3.13316457535093    0.96033593829858    0.24415016450957
H          -2.96954867465076    0.56833402699094    1.10882911271756
H          -0.69442477216655   -1.68761039457137   -0.68079477097465
O           0.22648884024574   -2.09320304520342   -0.75750072927333
H           0.10978091928333   -2.88227468216358   -1.28913502361619
O           2.43551010472247    0.34905622229060    1.37617524335505
H           3.28025937797019    0.03893593320554    1.70550559897837
O          -1.41293958548268    0.19101081810613    2.35194209902175
H          -1.17517707307948    0.88405713884800    2.97117981322533
H          -1.04983500730931    0.47167273028379    1.47060844387950
O           0.25337475458284    2.01325224294986   -2.30620556406980
H           0.20211162641407    2.74060095407648   -1.68152095001621
H          -0.65838707810612    1.62416544145878   -2.29946032809149
O           0.70500870038670   -1.54340427749480    1.96209030912414
H          -0.11608138425920   -1.10203088109245    2.24229255097968
H           0.51766102684955   -1.89308628401371    1.07751783989646
H           1.76253042410681   -0.31833229993069    1.68293212885592
N           1.73478934917704    0.10889967288255   -1.19793985884740
H           1.11713450000840    0.88673222735729   -1.59019272331426
H           2.02802938745266    0.35044620196481   -0.21573189147532
H           1.15102818590470   -0.75572488735313   -1.12060128984795
H           2.53984107173273   -0.04249777100849   -1.79694522336855
