    26
        -50.45070754  Gyration_radius:  2.66525861296 Dipole_moment: 9.222
 S          -2.56850825129863   -1.02561148211132    0.32563469242726
O          -1.90417134448843    0.27718158533511    0.45783851210294
O          -3.92182486661741   -1.07963975194194    0.76600633274614
O          -2.63776358461089   -1.20905812762057   -1.29882763082473
O          -1.70236814681933   -2.09972969227609    0.77576577804470
H          -0.36348776098388   -2.24963433014362    0.04526708432299
H          -3.53182897520369   -1.52086820358002   -1.39192663382395
O           0.46058367210472   -2.28711140375457   -0.53309715034154
H           0.52869092396752   -3.19625556642406   -0.82667701925952
O           2.17209049729258    1.30687388476461   -0.89422995605886
H           3.00670716887214    1.27234789778642   -1.36178400140276
O           0.15316219988126    0.83874502497232    2.14663984280530
H           0.33501882146475    1.74627675986132    1.84548379868647
H          -0.67849322630324    0.59111447964125    1.70988453762771
O           1.09169872682183    3.14081504927332    0.90388005323339
H           1.51076624380449    2.62180520689409    0.19823599841642
H           1.79876814664223    3.49879205872509    1.44297396761166
O           2.06902801473103   -0.49719621753717    0.91947589232785
H           1.40196765918824   -0.07598062234196    1.52167564272015
H           1.62075791007381   -1.26766880726157    0.54131914655749
H           2.22471465143451    0.60599564362085   -0.15888616736366
N          -0.20344761626557    0.13813995845859   -1.45392465875631
H          -0.90462954436018    0.31747774680570   -0.65016882386529
H           0.63496588651617    0.75141245570171   -1.36969088524115
H           0.09411934789417   -0.85485991486601   -1.32282712688073
H          -0.68651654373219    0.25663635805646   -2.33804122581163
