    26
        -50.46165850  Gyration_radius:  2.38611759029 Dipole_moment: 3.058
 S           0.03052203456525    0.66130536497313   -0.53689834436624
O          -0.39937951099844    1.16676403606693    0.76675703381966
O           0.22352659551881   -0.78850509747996   -0.48991766352279
O          -0.83583148178946    1.06448926413037   -1.61985581242766
O           1.44977678524278    1.28531104835067   -0.77829050609542
O          -3.10507602983846    0.49151166184627   -0.35603141771386
H          -2.36896103746327    0.74174917072778   -0.94949229263527
H          -3.15195844889604    1.18834224947619    0.30182583181301
O           2.27020692092084    1.03934861100959    1.83967496961408
H           1.60186970816297    1.56675624701167    2.28470597753571
H           2.13924519923742    1.21174432425297    0.89504913942808
O           1.37855057456864   -1.48466656945768    1.80046639833904
H           1.11570096490534   -1.42019026908058    0.85690888620172
H           1.92030107068235   -0.68136479877366    1.96091763105202
O          -2.05203307093337   -1.79372430255982    0.50381143004404
H          -1.24860238741121   -1.67868390616939   -0.04237705282768
H          -2.66552770930106   -1.09443958766728    0.18236283859931
O          -0.89943253874969   -0.67572589760763    2.41114221180371
H          -1.49484312856374   -1.25182866931465    1.74389407300726
H           0.06178075669191   -1.12365877099150    2.33769615309289
H          -0.75480754199987    0.17752543026449    1.85713303595057
N           1.41055330480685    0.23557000881473   -3.12267256090208
H           1.78531247706053    0.51492185862340   -4.02024411343279
H           1.51711871058061   -0.76540614488697   -3.02002952996587
H           1.65520993397820    0.96403383288097   -1.71511189229615
H           0.41677783900277    0.44882090552344   -3.09142441410157
