    26
        -50.46409602  Gyration_radius:  2.47909950364 Dipole_moment: 10.014
 S          -1.40577627382733    0.16508815735217   -1.08890690301121
O           0.00164746367092    0.26079805422382   -1.50793236110393
O          -2.23431700676166    1.22340920685093   -1.57279330788796
O          -1.94222675763632   -1.17707484614601   -1.69824055648286
O          -1.45549384881408   -0.00326042660236    0.37314897178437
H          -0.87569272598137   -1.20587518125383    1.13244954636000
H          -1.26186838473835   -1.85579966954857   -1.51174642428510
O          -0.38250298467037   -1.97433655952467    1.55861873960271
H          -0.75497887943476   -2.06893211973715    2.43632375885889
O           2.20295699104564    1.53431741747225    1.58733145769500
H           2.29281211427052    1.58338849014205    2.53982020809306
O          -0.25375991574070   -3.10104841556957   -0.89411430446167
H          -0.32354167685080   -2.90359326451237    0.05823216479106
H          -0.73270244200434   -3.91754224697697   -1.04884962300495
O          -0.29438482847444    3.05014066612443   -1.52682599534805
H           0.33087518897848    2.40303928193119   -1.86852618878750
H          -1.16052230239836    2.61974477706790   -1.64618838491914
O          -0.20797706067560    2.30816528375118    1.05291713822754
H          -0.22028697855350    2.78700172222182    0.19572959061713
H          -0.75377475584337    1.51608026844759    0.90533977203104
H           1.30590064704787    1.93657530143850    1.37862493409141
N           1.64903574003200   -0.65525169458885    0.23587532367607
H           0.97816889920222   -0.27593289378330   -0.52977505670918
H           1.99063431818276    0.18228691593524    0.79184059784147
H           1.09434057018122   -1.27246095597421    0.84777190480160
H           2.41343486977565   -1.15892728881513   -0.20012499248340
