    26
        -50.45611981  Gyration_radius:  2.46657924279 Dipole_moment: 2.370
 S           0.27504652662289    0.64775850744230   -1.13843376893705
O          -0.03258927685072    1.73438215469987   -0.22366269242850
O          -0.03093584555234    1.15169069028198   -2.57153373618496
O           1.66162150485830    0.22162438227097   -1.06230839330438
O          -0.62036635958133   -0.49927862177260   -0.89267033038854
O           0.54739437666401   -0.17681677005404    2.71652305602710
H          -0.20307496382208    0.44444563229054    2.66269017299656
H           1.30989828899542    0.29023991233825    2.27423715823567
O           2.27363135992021    1.19278105530422    1.30546272175541
H           2.22361921808458    0.76344545812879    0.42434585095211
H           1.83210734392014    2.03669435844108    1.17288245536263
O          -2.72887089875690   -0.96584035189839    1.06776071831416
H          -2.49820773285211   -0.10477476906121    1.46596304251938
H          -2.60621839750183   -0.84000943620823    0.11889683026034
O          -1.52839424053116    1.35422922471190    1.84282413203150
H          -1.89525860608134    2.20478189385812    2.08793632170113
H          -0.99605600695281    1.51333599682894    1.01505367245181
O          -0.34405013416256   -1.87646628113410    1.14460391434299
H          -0.29360610164610   -1.36634350102334    0.22741259053789
H           0.12474945140746   -1.21397467992148    1.86918213594376
H          -1.34060133586837   -1.77021631382923    1.31284605275360
N           1.00634442002338   -1.06277315436499   -3.47006492547547
H           1.58955462978030   -1.27315072679261   -4.26963645402780
H           1.59733659816237   -0.93989484939182   -2.65098631152132
H           0.28182097508167    0.38471749079200   -3.12928027008297
H           0.39510519671117   -1.85058732180198   -3.30004394388593
