    26
        -50.45312462  Gyration_radius:  2.49542517169 Dipole_moment: 6.911
 S           1.80660931021648    0.87172218817440   -0.80006282388585
O           2.06309562749131    0.78029768468226    0.65767262866944
O           2.71571703870911    1.71040875416803   -1.49381173545202
O           1.98105005228843   -0.60109576214272   -1.33844526030726
O           0.38264661646542    1.19409930512962   -0.99600989773169
H          -0.54801112708649    1.74241215397382    0.14498535977040
H           1.21336617949252   -1.11699786551533   -1.02061080878623
O          -0.22940312862191   -1.93610562211654   -0.54536865587046
H          -0.26075521489987   -2.84577901062723   -0.84257341019267
O          -1.15827168198200    1.97712742839733    0.90295326748526
H          -0.93336677666216    2.87502687951097    1.14890304708265
O          -3.33225908287899    0.76975044915131   -0.23231934550261
H          -2.64439122479571    1.27980043203162    0.23348432505070
H          -3.94622788366062    1.40553979677906   -0.60246766649323
O           2.52473904372906   -1.81931288544083    1.35223728850326
H           2.61873370013106   -0.87738107272180    1.13441996364668
H           3.06057403536122   -2.28542631349418    0.70921811354853
O          -1.56250647744358   -0.32169476758070   -2.00908974969035
H          -0.86313573927485    0.34906235065336   -1.87644520876044
H          -0.82371462744418   -1.39623212843649   -1.16407587343242
H          -2.31321382319810   -0.02016091092218   -1.46132629460537
N           0.02021687176566   -0.36152024111161    1.64718083186322
H          -0.72112276781443    0.35174638910058    1.67436557907350
H           0.92275521652878    0.15368818092450    1.28016056263680
H           0.21303881371636   -0.78131317557418    2.55084902274650
H          -0.18616293013883   -1.09766224698362    0.94617673062784
