    26
        -50.46165850  Gyration_radius:  2.38608648917 Dipole_moment: 3.051
 S          -0.15879261208666   -0.45662781717800   -0.70259370503925
O          -1.32361195354082   -1.19735179716718   -1.12735329140066
O           1.09644163971361   -1.03912551410918   -1.44224465349371
O          -0.20570315630447    0.95785154507997   -1.07235340489642
O           0.10360802019274   -0.60702469932821    0.72924619347121
O           1.91334346030640    1.17140108562625    1.51969157784110
H           2.44234703492011    1.24348251281234    0.69530032747731
H           1.38059449606879    0.35561594530439    1.40000456521006
O          -1.72914041320700    0.90420476895525    1.96762853450977
H          -2.44102986851029    0.84315089570551    1.29082789315242
H          -1.12905981096546    0.16184448849139    1.75352782600357
O           2.66494813500023    1.19065051663763   -1.04934343495452
H           2.13606291691638    1.85944557090065   -1.49192609936406
H           2.25255517681936    0.34614781638138   -1.28603630726137
O          -3.09109790885217    0.60865788506201   -0.29715903577140
H          -2.57421246498404   -0.14546012353448   -0.64480073229601
H          -2.97571968465743    1.31471866539902   -0.93644110903151
O          -0.11511999350935    2.49262196886192    0.92411699003985
H          -0.17899976801259    2.00515074141035    0.02193899486853
H          -0.85492367197843    1.97525176286279    1.48652290243067
H           0.80049916818978    2.09985639118869    1.29587308247494
N           0.41237003775404   -3.35953054446452   -0.57677868593201
H           0.49206006972319   -4.29690683787460   -0.94939338933761
H          -0.53599543242958   -3.02063706208177   -0.71722975501634
H           0.58855191975214   -3.38612327504438    0.41922761235902
H           1.03002466366752   -2.02126492989421   -1.21025285603975
