    26
        -50.46624024  Gyration_radius:  2.6650312942 Dipole_moment: 1.866
 S          -1.90497709835750    0.78682268321655   -0.67148990145042
O          -0.68718169694800    0.52011500533206   -1.44456807203968
O          -2.58176474810835   -0.42727145554023   -0.29231888969170
O          -1.63695925633469    1.68668610885872    0.43849110337203
O          -2.88306780381074    1.56626549871251   -1.64621917876686
H          -2.52584047060564    2.44882086469809   -1.69433399001598
H          -1.26826603387003    0.57081657692501    1.64625733291101
O           3.17351201018765    1.38895317256965    0.36761474814259
H           3.81328804873946    1.79693452483291   -0.21753165800640
O          -1.05424407926406   -0.25832140615261    2.12449101578064
H          -1.87117684626630   -0.76435571878752    2.10984433699095
O          -1.66300492604788   -2.91920898224785   -0.58841085633724
H          -1.96759513692590   -3.26808003368169   -1.42697534041121
H          -2.11761987852926   -2.05763933037178   -0.47406703495337
O           3.05324758525436   -1.25893157070939    0.44631557038569
H           3.15001096715633   -0.27741632686945    0.38389866494303
H           3.39403780237367   -1.50012742465245    1.30915770480020
O           0.84669997742671    2.42744213694805   -0.42779932922594
H           0.42873824116177    1.75150618015421   -0.99453779794540
H           0.18448862471766    2.57248164769809    0.25951042693145
H           2.30402295287187    1.79063227519947    0.13133199327522
N           0.38806353543921   -1.33134922243496    0.13351426955657
H           0.12645571206739   -0.62742799737919   -0.59412605175000
H          -0.09563678576455   -2.20866508618208   -0.12370973011851
H           1.42888114598695   -1.42446147991118    0.21484350643709
H          -0.03411183247929   -0.98422061024730    1.03081715720709
