    26
        -50.46977719  Gyration_radius:  2.44227172524 Dipole_moment: 4.801
 S           0.62979121928235    0.32538599709777    1.35332508119730
O          -0.74676492407119    0.57835348676118    0.93757734404374
O           1.42958578353057    1.50987306186237    1.40088426102764
O           0.50974214228755   -0.32087966632999    2.77934780866235
O           1.22878603739530   -0.72136067064935    0.49322581506166
H           1.24701308486395   -0.09439746681295   -1.12347412237032
H           1.41396110399673   -0.62438794587598    2.98351551298032
O           2.93834127750600   -1.34720334932380    2.43047790375667
H           2.56887463976454   -1.14993181550077    1.55048718189586
O           0.95474033829509    0.31393250595134   -1.96297691461228
H           0.72347232974692    1.23475401379322   -1.72473572402414
O           0.01323093625562    2.55349374974901   -0.75453907248815
H          -0.22448413664208    1.94941438279809   -0.02679685151122
H           0.75210957970897    3.05573091738919   -0.40064923300209
O          -2.62563764033879    1.28029318080256   -0.87631024974235
H          -2.17184666278471    1.04887844969223   -0.04592456318795
H          -2.18784129801233    2.08693156017817   -1.16922974305250
O          -0.97883683152777   -2.11268447604680    0.26995898663245
H           3.05471400281214   -2.29937175213008    2.47201740747997
H          -1.49107749448682   -1.61591587605021    0.91570834882700
H          -0.07430436703850   -1.73233999220978    0.35192422853658
N          -1.41197074823359   -0.80044448590024   -2.00220167257770
H          -0.43137130727822   -0.38813050639449   -2.14299028485170
H          -1.33100853733779   -1.45701263017968   -1.17540830033548
H          -2.03288009447183   -0.00171434924331   -1.70243379073135
H          -1.75633843327372   -1.27126633343227   -2.83077935752263
