    26
        -50.46860827  Gyration_radius:  2.53210713851 Dipole_moment: 1.493
 S          -1.50194529053703    1.35164943611508   -0.21048542202439
O          -0.38618774428946    1.09385264385677   -1.11982718622635
O          -2.42119047532146    0.24508361231326   -0.13872315759661
O          -1.01988109496621    1.78407327735401    1.09516488676508
O          -2.29650610550615    2.57470304467430   -0.82038599566383
H          -1.67223463030780    3.29307952274315   -0.78030647682532
H          -0.94096068303882    0.27994374866813    1.84887404067601
O          -0.81142442686945   -0.66047865192280    2.09651935075047
H          -1.69431992611403   -1.03773344329339    2.10214533296251
O           2.39352888637061    1.08349960320790   -0.92230054220698
H           1.49366602978170    1.21410286838159   -1.25431309958560
O           2.82137322607773   -1.51849043712875   -0.81412005978563
H           3.53835897717434   -1.65766315375370   -0.19433775615676
H           2.78497156929494   -0.53973996008722   -0.97835593642621
O          -2.20370758594591   -2.22613107587889   -1.13945954584590
H          -2.42316447774910   -1.34603250235843   -0.76855543538704
H          -2.65194342815713   -2.27754349398698   -1.98446808793148
O           1.58129638487922    1.36666181320241    1.66529910088831
H           1.47923530647487    0.70982026180930    2.35720208724148
H           2.32390433836584    1.27722166114885    0.03037940030971
H           0.67729392549231    1.67275760372533    1.46442918690142
N           0.20356962311474   -1.36295491812941   -0.30660845742746
H           0.04057017157196   -0.41903240126089   -0.73658842108269
H          -0.48637320823647   -2.00607578543430   -0.73082625666679
H           1.20106254589248   -1.63777969354358   -0.46618078725737
H          -0.02899187743292   -1.25679360016179    0.70582920777348
