    26
        -50.45420608  Gyration_radius:  2.39490321069 Dipole_moment: 8.239
 S          -0.27293015931145    0.49856470505488   -1.98988566638905
O           1.18053779205537    0.39674490467544   -2.18791691194267
O          -1.07034013583420    0.19304331455771   -3.12963049537333
O          -0.57680043569407   -0.58316301302921   -0.85812691387059
O          -0.62251709436762    1.75506637909969   -1.32181653204225
H           0.00619367258977    2.12929095746361    0.04891810780611
H          -0.17360033418282   -1.43993377557898   -1.09620162287567
O           0.45819806294624    2.31024503534772    0.92750542151326
H           0.44068668013512    3.26202631688077    1.03505090276779
O           0.67665392274393   -1.57945637851987    1.63535718993712
H           0.84047373580021   -1.82241799982714    2.54783309498451
O           0.50393379490104   -2.99956063229300   -0.71160024578359
H           0.60397419488173   -2.68594509554837    0.20473808535737
H          -0.21072723731973   -3.63884991044648   -0.71113297569139
O          -2.85422962251645    0.79418196601334   -0.20271892274665
H          -3.14347885974725    0.11503993904371   -0.81416417256582
H          -2.12738205789279    1.25581931848467   -0.66260680788942
O          -1.17908114176021    0.21157099397250    1.87843068348153
H          -1.86726461275451    0.26274676592034    1.18271900901381
H          -0.11766396234989   -0.95806698336233    1.65963353606808
H          -0.66919054199455    1.02666053308638    1.76176331139758
N           2.06318287662802    0.29097242962209    0.17950811048424
H           3.07517713495395    0.27230271057203    0.24200145845455
H           1.66399369352111    1.15557964885809    0.59714055477753
H           1.73518478582227    0.30063430670867   -0.88246005160181
H           1.63701585874309   -0.52309644675825    0.66766186272707
