    26
        -50.46060889  Gyration_radius:  2.58715175032 Dipole_moment: 5.773
 S           0.28130631125720    0.08359142107303    0.63288913048057
O           0.41884428748713    0.08149940630818   -0.81896491821687
O           0.55911195560025    1.44343264542205    1.13699756748175
O          -1.21770079841433   -0.17784307480329    0.95780190963553
O           1.08638678819844   -0.92384385499455    1.28738079667668
O          -0.77187262369867   -3.99019434170794   -0.08885329165291
H          -0.47667059201181   -4.89879804439657   -0.01336477894961
H          -0.01933694049494   -3.48822216197804   -0.48286981691120
O           1.29346824349826   -2.48286874825758   -0.85584150124400
H           1.45748158062438   -2.08124672029376    0.01668946915137
H           0.96664307274610   -1.73013235165171   -1.36596613683796
O          -1.78466793401792    2.46392841084096    0.27482729233354
H          -2.45376776690578    1.80031217145551    0.45958094418284
H          -0.98914168016558    2.14602078818197    0.74161471854138
O          -0.56046798265489    2.16028327867166   -2.07715969653178
H           0.63208169713784    2.76058130595641   -1.43588698672339
H          -0.29923430617633    1.24429399960812   -1.82563409184178
H          -1.23906234155926    2.39594979233806   -1.40667233918072
O          -0.97480382231945   -2.43709820529429    2.08608403258979
H          -0.03680983888829   -2.19738363218257    2.14258922205401
H          -1.26400552634869   -1.07114220096994    1.43193773384278
H          -1.04074064050761   -3.08044495029658    1.34299606674956
N           1.44798637922278    2.97996110283813   -0.72118832437094
H           2.34589134875050    2.68989008984766   -1.09397019094015
H           1.17677561095805    2.35269456130400    0.12098095005137
H           1.46230553870644    3.95677930298374   -0.44599774037446
