    26
        -50.45745695  Gyration_radius:  2.39272588191 Dipole_moment: 7.911
 S          -1.81715830300772    0.24165075897139   -0.55333550893784
O          -0.90344438787924   -0.15987099638596    0.52600801616818
O          -2.63610388724035    1.35969849217052   -0.20096509504396
O          -0.80222834223747    0.72241166514171   -1.72185859593056
O          -2.47173996703409   -0.91093113105908   -1.13239282785284
H          -1.66238166233747   -2.18978865756787   -0.65993617725252
H          -0.22785072559806    1.44284110750047   -1.32287753159672
O          -1.02714410405209   -2.95519878955373   -0.56446696451097
H          -1.38755111114578   -3.65595054989555   -1.11147246234865
O           2.42248771761856    0.01290453149533    0.40129041106172
H           3.32514895599283   -0.17671566499803    0.66037901492787
O          -0.75071519114114    2.21547804496443    1.65332056985810
H          -1.55333540717277    2.70929184631851    1.46579299938153
H          -0.94353373351751    1.32350467224503    1.28906579838528
O           0.86785854182820    2.25590130136886   -0.48177752703017
H           1.54295334507818    1.61178028737026   -0.22359144533087
H           0.35837253496263    2.44567379150974    0.33714070725486
O           0.87963070214522   -0.11972894350894    2.48913002047467
H           0.63380097352135    0.76357453646688    2.78530576817408
H           0.12992518656737   -0.40267807153497    1.93350103857658
H           1.87488182753212   -0.03116432950926    1.24100387316213
N           0.85442901901080   -1.31657046715445   -1.37358353634693
H           0.19727014451158   -0.53628022483364   -1.64351301504596
H           1.49365567281927   -0.92276578246248   -0.64440371164259
H           0.22476022840937   -2.07715404806749   -0.97054836066643
H           1.37801195236884   -1.64991338899160   -2.17721544788859
