    26
        -50.47376043  Gyration_radius:  2.38793149794 Dipole_moment: 3.935
 S           0.14952328402451   -1.30920516447357    1.28245747277417
O          -0.46575446144149   -2.59415849027108    1.46694453438568
O           1.20645800414145   -1.29181930538814    0.28450061769086
O          -0.79049364465337   -0.21336521785268    1.08397630824800
O           0.86363451819560   -0.95930976691053    2.67368436047527
H           1.08427097956794   -1.82578163584045    2.99818729100569
H          -1.46625183490566    1.12428852339570    0.20851783074067
O          -0.07173915622333   -1.44048661935281   -2.06087874207805
H           0.53046620741452   -1.55445517962593   -1.30085094393879
O          -1.56926099888502    1.96276361954956   -0.27969567182902
H          -1.17737066866888    2.62613765804260    0.29570384369987
O           0.71233660173800    1.83689866782295    1.80596427652390
H           1.14904018779033    1.63691208786497    2.63558161922308
H           0.13828832688414    1.06300359211218    1.62601603617431
O           2.16314407953671    1.10723274865000   -0.36278141570660
H           1.79514183392529    1.58797843215623    0.40448814233000
H           2.00881274092203    0.16430736074770   -0.14457827573900
O          -2.17140149604083   -2.09242614384089   -0.52662964475660
H          -1.63610253221681   -2.46235084517236    0.20012424927800
H          -2.58799208447078   -1.30958265962586   -0.15861022335022
H          -0.94120644727625   -1.73849660090953   -1.71964999935136
N           0.21002124201454    1.15830828582787   -2.11330731811378
H           0.31765483475203    1.61097436805537   -3.01328401545289
H          -0.57335973922683    1.57132889348169   -1.55268395827789
H           0.02981360697403    0.10596487405844   -2.21937993506781
H           1.09232658611817    1.23533850749280   -1.51381643884250
