    26
        -50.46310673  Gyration_radius:  2.54468539067 Dipole_moment: 7.036
 S           1.76645253401924   -0.30688789489702    0.83866042597240
O           1.41864569523203    0.96535202453988    0.19399732117498
O           2.16791215053244   -0.20145474392997    2.20020594952319
O           0.65959646682229   -1.26110949720416    0.63198096884390
O           2.98110445025047   -0.88841275239559    0.01096206793383
H           2.73837140839372   -0.77276223930339   -0.91446018857444
H          -0.09469782837752   -1.00066809862920    2.18971718237073
O          -0.45383861736189   -0.59222083109869    2.99659634670211
H           0.31982678548073   -0.48212937859934    3.55795882977080
O          -2.61939590691611    1.39694048372618    0.31306809578150
H          -3.34220972262629    1.32582693692482    0.93864163629751
O           1.76147410751394    0.28050023329190   -2.22367788191526
H           2.20561479594814    0.98992387987094   -2.69292556944766
H           1.54335397912050    0.65063274867570   -1.32036408227419
O          -0.55896081601132   -0.66793335229565   -3.17277465047863
H          -0.33960546577104   -1.47073800661100   -3.64824548188721
H           0.29617869959413   -0.26655739154767   -2.90129502646746
O          -0.55483779526503    1.85082459586156    1.80599158428949
H          -0.59297726390224    1.06841591886734    2.39284510343715
H           0.22923722317978    1.71025134551945    1.24711492777200
H          -1.83065953639208    1.70555507920318    0.85184435175678
N          -1.55619183504705   -0.81308200007139   -0.66474774170579
H          -2.16780902134164   -1.60769272658204   -0.50911079674088
H          -1.31188149968626   -0.72891137555349   -1.67713047197938
H          -2.01845388984695    0.08033511469483   -0.31582850074349
H          -0.64624908758168   -0.96399808245219   -0.12902440949836
