    26
        -50.46365342  Gyration_radius:  2.41771620323 Dipole_moment: 9.110
 S          -1.44298805145616   -0.24446447176601   -1.33967442875651
O          -1.42280366050900    0.52939280882445   -0.09895703317082
O          -2.18290864748905    0.34160805392052   -2.40329871721672
O          -0.04567230908359   -0.57781661310801   -1.73170183355130
O          -2.08501702162893   -1.63066760577341   -0.95811680877083
H          -1.58655632367493   -1.94020031041342   -0.17983273586982
H           0.24791430675951    0.95954424600651   -2.50191878680336
O          -0.67290007510742   -2.40650753475634    1.27001204932066
H          -1.19511516172335   -3.06187930419224    1.73499174525738
O           0.21254710722546    1.91295397020520   -2.68508481299708
H          -0.69178927936548    2.05508774377316   -2.97985264325112
O           1.77012750243979    1.03903929672490    1.51457585674844
H           2.54068559052824    1.53884723327614    1.78568276437420
H           1.24063581118693    1.65432244279763    0.90958949870251
O           0.33207054028591    2.49569020576689   -0.04467998464696
H           0.52403323897789    2.52156015569216   -1.00195641155010
H          -0.46005442628651    1.92093828791084   -0.00084175437102
O          -0.73797880044453   -0.06553725574544    2.36680609504833
H           0.12540628251129    0.36816517419945    2.39789933062853
H          -1.15655438573673    0.28068372047757    1.54936966092337
H          -0.74927181414562   -1.55434598517977    1.79669823308107
N           1.51992899022409   -1.24132946089623    0.13611845534899
H           0.86495168971131   -0.93367069729646   -0.70529863793372
H           1.72214169666991   -0.38437823041222    0.70704486723625
H           0.95850528754330   -1.91111311160200    0.67799943013634
H           2.37066191256151   -1.66592274838516   -0.21557339793763
