    26
        -50.44521431  Gyration_radius:  2.44319646643 Dipole_moment: 5.172
 S          -0.66423527056906    2.25532750807038    0.26925029481760
O          -0.51246361370300    1.58628218473580    1.53540321586164
O          -0.31939565605875    3.62764719972975    0.21664164411448
O           0.14296271477229    1.45168308915562   -0.80432493743082
O          -2.09538432842939    2.01697555375309   -0.25036342942137
H          -2.26549012257849    1.06720971711924    0.00662304080433
H           1.07784852688704    1.22121845104249   -0.48757529463533
O          -0.18266870695772   -1.98331720086475    0.82492545768800
H          -0.39844588875835   -2.91290025458435    0.91050864725619
O           2.45020656850490    0.81001315598306    0.07611619649492
H           2.93827377437466    1.59356562657990    0.33668675573611
O          -1.30910277508772   -0.42905546045027   -2.31529866310097
H          -2.05076076712831   -0.61681254630072   -1.73451288440969
H          -0.91704405745004    0.39171318020666   -1.99001334717336
O          -2.33793099500943   -0.41760549839351    0.58892386429805
H          -2.53320063851797   -0.20304429634898    1.50434677410644
H          -1.50847274615539   -0.95644177077383    0.62591728440287
O           1.37561080252139   -0.18554229107962    2.20512491818581
H           2.15831826241898    0.36034754891484    0.92948782325860
H           0.69684750015904    0.51435020863090    2.21099116475762
H           0.90224255913925   -0.97190545221780    1.88541800130340
N           1.15158142941038   -1.66871866739325   -1.39211421621539
H           0.40420584957571   -1.32033345121297   -1.99168796765569
H           1.62103427565191   -2.42468373355080   -1.87303597920723
H           1.81719282777266   -0.91706723212711   -1.25561592291181
H           0.35827048521413   -1.88890557861466   -0.03182241092694
