    26
        -50.45871048  Gyration_radius:  2.48551576259 Dipole_moment: 5.815
 S           0.32961241481857   -0.74151156174847   -0.81675610857414
O           0.29116590231455   -2.02315286732371    0.04845828044863
O           0.81291239610366    0.34352809364237    0.03747389496836
O           1.23360836232030   -0.96204048622233   -1.94290902339774
O          -1.01373042672527   -0.46326922875634   -1.31509858691007
O          -0.23723960966073    2.42751791525680   -1.09509202290880
H           0.28731374492996    1.79967711455252   -0.54164485303086
H          -1.12436053278053    2.35255586447158   -0.71468003816146
O           0.66152193091536   -0.72067809752877    3.70450129108001
H           0.84150427553848   -1.43618810145964    4.31609547337600
H           1.40436357515028   -0.71265808315971    3.05858012324417
O           2.44035488262755   -0.94149644480626    1.70508539159674
H           2.31260021634915   -1.80841318538858    1.31036922966354
H           1.96485785795872   -0.32689212551104    1.11083984628514
O          -2.30820000475660    1.04901196351075    0.33401227410114
H          -1.86318972396515    0.44916033036718   -0.31455423412785
H          -3.23844925057665    0.81757788826631    0.31580512397874
O          -1.23546290805481   -1.10812972238978    1.86429035880181
H          -1.52703707870808   -0.24392779259687    1.52857359202924
H          -0.35520248942075   -1.77173959802795    0.80296681902196
H          -0.61778468076958   -0.91630366210746    2.60927350190241
N           0.19313539564396    1.00533562765956   -3.23980232011798
H          -0.68592602246091    0.62749827122341   -3.58556946795407
H           0.72586604214760    1.46012230178151   -3.97559657515677
H          -0.02441924521609    1.67488814990754   -2.40749191060110
H           0.73218495638267    0.16952743634837   -2.79713004956128
