    26
        -50.45603207  Gyration_radius:  2.63401339443 Dipole_moment: 4.954
 S          -1.44311270011045   -1.44239254742184   -1.66753601847890
O          -0.14313243340920   -2.10939057866556   -1.79974129635857
O          -2.31852874167918   -2.09065300846120   -0.73646440763871
O          -1.24540801156981   -0.02242945524160   -1.35670111310223
O          -2.10976748015446   -1.49631936354255   -3.10282659810472
H          -1.46209831480601   -1.10506749498783   -3.68382379960109
H          -1.50548036667070   -0.02115282088122    0.26870375461657
O          -1.56562465062671   -0.33195639214126    1.20620536328441
H          -2.36384452990250   -0.87018294892436    1.20855679783236
O           2.25934992262267    0.11401832611252    0.71799152688957
H           3.19757164162888    0.11843224655617    0.52699718544865
O           0.32000426195652    1.47435237844715    2.29375007967258
H           1.08322846923726    1.00270039137240    1.93097523472878
H          -0.45461531749013    0.93638092265687    2.08117184061518
O           0.27352933335915    3.39312708661250    0.39555449249473
H           0.20177256083737    2.79566502761867    1.17217037891330
H           0.80022604119893    4.14208658377878    0.67607211287043
O           1.05423156375116    1.33009154848804   -1.18362488183319
H           1.81511645894886    0.60176413003109   -0.05991057018706
H           0.22587011871835    0.83774782709054   -1.35177116817786
H           0.76374689536717    2.17036466717452   -0.77282935767277
N           0.53819529261822   -1.90947235987448    0.66996260935372
H           0.71067717397067   -2.77432274095215    1.17057024549389
H           0.33596168431364   -2.09467988828080   -0.37380492154257
H          -0.31395133780639   -1.40968831069178    1.03435803699974
H           1.34608246570776   -1.23902322587527    0.73599448349307
