    26
        -50.45653334  Gyration_radius:  2.50029461626 Dipole_moment: 9.807
 S           1.09906067651118   -2.17278262729166   -0.10139968435567
O           0.06318173173935   -2.06002697978408    0.92813350820100
O           1.43585536494478   -3.49477541474912   -0.48898278897303
O           0.74580941243608   -1.29907868937855   -1.25528205419702
O           2.39206965368465   -1.48849969249997    0.51441713607530
H           2.11763835488776   -0.65995935058662    0.94722559261093
H          -1.10447402147256   -1.67909045520396   -1.48637290098479
O           1.72888185140043    0.95096164857367    1.55937667322881
H           2.17699908710139    1.05710374135126    2.39928805199203
O          -1.84134667514142   -1.80032122882326   -0.86878311471736
H          -1.37653227271635   -2.10885618192987   -0.06589526799629
O          -1.03096873009193    2.48201474817265   -1.22111315190110
H          -1.15198805606477    3.23062019336776   -0.63453758528680
H          -1.64024101511558    1.77990597757150   -0.89738768514517
O          -2.52457035697262    0.58304768127455   -0.10028527228644
H          -3.48046843189609    0.59901275185969   -0.03844294185182
H          -2.29025238697644   -0.33388229982097   -0.44149195676912
O          -0.69340524419309    0.21574364346292    1.96653566131228
H          -1.38773642394353    0.47930989047144    1.34112019918394
H          -0.47253566738978   -0.71198722036514    1.71221743200234
H           0.76332448614257    0.75514344985275    1.77505878390651
N           1.30866050831712    1.16218140640983   -1.11690509304100
H           1.67345600189951    1.30014759997279   -0.16415506242448
H           1.99823381263447    1.41593961628277   -1.81530174551311
H           1.06549684486494    0.08223590684936   -1.20903522773503
H           0.42585148540537    1.71589188494938   -1.23800150531876
