    26
        -50.46995335  Gyration_radius:  2.48904505668 Dipole_moment: 2.983
 S          -0.55382652093572    0.18848113589217    0.56372252173751
O          -0.24407002140229    0.35529746052116   -0.86324496367635
O          -0.08746709529922   -1.08991476368959    1.06299621988246
O          -0.01454745805546    1.29895269704185    1.33954411719828
O          -2.10163088053724    0.19054939404373    0.68639220917784
O           1.20893641769712   -3.15407415838218   -0.17674287342659
H           0.43926272681459   -3.38444589208288   -0.71437319396628
H           0.82204194143581   -2.66136959241297    0.56672148068113
O          -1.02489055688644    3.63027300400541    0.57156130951692
H          -1.39635080216567    4.04074734506925    1.35431680533694
H          -0.55493095088772    2.82739922319841    0.88364610446642
O           2.46399757026238    0.35064558911618    1.38231948286506
H           1.60703528940660    0.82992604897129    1.41303084591335
H           2.39675168508357   -0.31488750750415    2.07148852355069
O          -1.39611177155059   -2.46456373546561   -0.89307863034573
H          -1.09750281219695   -1.92448753841928   -0.14463675857305
H          -2.22251282198351   -2.07833085534810   -1.18511818049290
O          -2.38846244732263    2.02066190676633   -1.07655733105070
H          -2.02387994775036    2.79215895892342   -0.59138524722447
H          -1.62010182836980    1.59971655038743   -1.48876697483335
H          -2.41138457890754    0.90949095571411    0.05224388880043
N           2.07212570387408   -0.79748449308446   -0.99380631354225
H           2.44387578124103   -0.36278498082955   -0.10908929801261
H           2.69175922422721   -0.66101059102437   -1.78472409048505
H           1.86203475430847   -1.82066739092076   -0.79831482480799
H           1.12984937985273   -0.32027878040886   -1.12814482876888
