    26
        -50.46824499  Gyration_radius:  2.53307264678 Dipole_moment: 2.057
 S           1.90097482704884    0.24846018167054    0.36237278968627
O           1.95622910103870   -0.29963930545818   -0.98787074934451
O           0.80734747621503    1.18513853935413    0.53477804977185
O           1.91736715883634   -0.79567782556743    1.36762053574912
O           3.22711461275973    1.09322918536430    0.55512952363709
H           3.91784998776117    0.44031917875788    0.49589704519804
H           0.66497438966527   -1.10040940473920    2.48023824323249
O           0.01634259932081    0.51169556566150   -2.63637403495318
H           0.73781947368202    0.22552818270361   -2.03957994604527
O          -0.14838620208458   -1.20836477439899    3.01757992130248
H           0.02094659976991   -0.76076694135144    3.84717057600542
O          -1.15220990104853    2.38744865875093   -1.06255345103612
H          -0.48998931233380    2.31173531660745   -0.36269374057366
H          -0.79822559419362    1.82400858785006   -1.77686063908535
O          -3.20035511714464    0.80092011401984   -0.52613483192860
H          -2.54873495503686    1.53052454741997   -0.69417792538871
H          -3.50883995402241    0.52415151053952   -1.39046226835760
O           0.39174753753283   -2.38965322233391   -0.44691478154307
H           0.41213242704411    0.60220014844987   -3.50407209170307
H           1.01912419607236   -1.73028786161659   -0.80235784450635
H           0.81301428141700   -2.72409259750133    0.35002818987291
N          -1.22235193596263   -0.54442846805326    0.64240071827077
H          -1.27452982442770   -0.82847478111636    1.63273231944819
H          -0.82715610681210   -1.34610502895630    0.09754107088603
H          -2.12440965077340   -0.17649416802329    0.24887430539552
H          -0.50779607431338    0.21903464197896    0.59768898602593
