    26
        -50.45871049  Gyration_radius:  2.48539870097 Dipole_moment: 5.813
 S          -0.06273160153595    0.82043074346510    0.80551132803691
O           0.28176056829721   -0.58620265613355    0.59761790612244
O          -1.60504592181783    0.90745623486106    0.88345749523916
O           0.49983238674196    1.31637690581992    2.05913040885616
O           0.40549115955514    1.64823121131535   -0.30174828498946
O          -2.82638138520993   -2.54671029086445   -0.44795683696441
H          -3.75813721522705   -2.68255270309848   -0.26971380909048
H          -2.38829828664091   -2.43835950448003    0.42691284353202
O           2.57150350037309   -0.40678160191333   -0.60788670528206
H           1.75955258415585   -0.70768199900403   -0.13265539841316
H           2.23852144132323   -0.22491008004963   -1.49860449236725
O          -1.68589980308137   -1.83884690583615    1.87801094757183
H          -2.12790736711314   -1.03909189071158    2.17577198979449
H          -0.85734968180252   -1.52381901291106    1.46418340188781
O           0.51565313861256    0.27561054422754   -2.48913088534399
H           0.30461632906818    0.84279416569686   -3.23278118924950
H           0.46565173058306    0.84799812842551   -1.68388230657487
O          -2.07640501884638   -0.15718900240664   -1.37676001275074
H          -2.35908516786174   -1.07347104308764   -1.14479941419374
H          -1.90248867423105    0.53916376626817   -0.02560507410392
H          -1.20330884345740   -0.24366472635365   -1.79491425644850
N           2.80023818625587    1.66981194815122    0.95511549860926
H           2.80163079628314    0.82461968964995    0.26657944192002
H           1.89440472959248    1.55122807951513    1.54698557502692
H           3.63557789787533    1.70227817045978    1.53231549383495
H           2.67860450809705    2.52328184896660    0.41484634528802
