    26
        -50.46691630  Gyration_radius:  2.44147217954 Dipole_moment: 5.053
 S          -0.81032015129139    1.37560301096747   -0.93681800315200
O           0.16414865953072    0.28466191559455   -1.21734772823599
O          -0.11990376188700    2.60535911424811   -0.69784205579436
O          -1.70409421098806    1.50297581215757   -2.20222747166590
O          -1.67484447771860    0.96984083860992    0.17386397384232
H          -2.16417002145098   -0.56262490958400    0.26579470776553
H          -1.94169575333593    0.57052517606657   -2.43024109936810
O          -2.39097823338256   -1.52839746832304    0.23994226913476
H          -3.27478596415128   -1.60072174167373    0.60251590926497
O           3.08951912160324   -1.13012092757456    1.00950515290428
H           3.35820175666508   -1.38679465280990    1.89314581361707
O           0.17550781220445    0.91158396635514    2.08111469977957
H          -0.60311107895832    1.16113234318360    1.54490716403234
H           0.23235818714605   -0.05492481992572    1.96496696717826
O          -1.82247796370008   -1.10614485200144   -2.41764791278576
H          -0.87779801266669   -0.97583579095443   -2.25275436216548
H          -2.17823730949155   -1.45191404247155   -1.57879368476392
O           0.37060671238145   -1.49007215691613    0.75475486177793
H          -0.48868130468241   -1.93052447460193    0.77990369080944
H           0.30818507233647   -0.89785224472966   -0.02737341236011
H           2.18997480858958   -1.48077766171785    0.88280280139749
N           2.07416649252619    1.26246159470226    0.30967217716787
H           1.45531991337008    0.96488388679038   -0.48904441142574
H           2.50039351332532    2.15895402336035    0.10130628043269
H           1.38638353636402    1.33351606950909    1.12633653350232
H           2.74633265766345    0.49520801174090    0.51955711909834
