    26
        -50.45562019  Gyration_radius:  2.45732878757 Dipole_moment: 5.906
 S          -1.48491205412200   -1.72431818228783    0.48507190815548
O          -0.28926398843779   -2.51498721564437    0.16114386739184
O          -2.71140406878577   -2.43913724490812    0.51534447670831
O          -1.21434797180244   -1.13947315857177    1.93759665062352
O          -1.51615706543986   -0.53113452062900   -0.38983513949354
H          -0.90081712030260   -0.24799997407301   -1.82392084746865
H          -0.24415515464088   -1.10786488116810    2.04376001038863
O           1.18771609848316    1.45489974574644    0.60587944511447
H           1.20475324318357    1.97887851580352   -0.22103936222745
O          -0.37453886864672   -0.06780092141761   -2.65085858256586
H          -0.91079549085823   -0.37961541967399   -3.38039741348409
O           0.46909698323094    2.42641047383288   -1.79054891807883
H          -0.33591846928987    2.87417206967331   -1.52066138741162
H           0.18179657702623    1.60588710160959   -2.22826623676867
O           1.41793423774950   -0.67816925485078    2.32368360598855
H           1.55529450108649   -0.56704742160563    3.26582282871194
H           1.52369793167410    0.19479698653457    1.91372391648845
O          -1.40209956847647    1.58486210913676    1.11725413246966
H           0.24677659911626    1.55620104815183    0.89955145676210
H          -1.56588601857309    0.83247327094368    0.49872388798185
H          -1.72506446146918    1.27228403418731    1.96507263441883
N           1.40801432239140   -0.87357546997817   -0.75329281834932
H           2.35402548852403   -1.23704792151943   -0.78478931164513
H           1.04751384759228   -0.65364023461836   -1.69316019457982
H           0.71861955111433   -1.62192071039267   -0.32416492638019
H           1.36012089967442    0.00286720571409   -0.17169367275002
