    26
        -50.46951794  Gyration_radius:  2.42221280141 Dipole_moment: 5.943
 S          -1.32429485988126   -0.04919251178778   -0.45377639332080
O          -0.83529443215786    0.54167990467287    0.78990792548696
O          -0.28853579448044    0.04678556526945   -1.49231620223995
O          -1.73210085351340   -1.43274044978953   -0.26542378999001
O          -2.55438502031064    0.74770511408805   -0.93026134245197
O           1.74781257200084   -1.50704013862938   -1.08494595159012
H           2.08259310254384   -1.81428471986894   -1.92863309993077
H           0.98090838444788   -0.91055098246627   -1.29535780867476
O           0.48407440197019   -0.79642248399480    2.80413493503767
H           1.26811304527215   -0.31702290223952    2.46737117573372
H          -0.25318695338714   -0.27270287941003    2.44958957705122
O           0.19583590847459    2.60334753089643   -1.96430923858324
H          -0.03305361202286    2.77473683089451   -2.87914086171546
H           0.09709400818785    1.63543694165956   -1.83242091247326
O           1.91227717142002    0.52050285301171    0.96023988546649
H           2.22708355212759   -0.01776893861401    0.22652848333871
H           0.98643436034786    0.73166509284223    0.75286279715767
O          -1.64948164738986    2.97642944127262   -0.06240077839380
H          -0.94018848988696    3.10634514877013   -0.72829918353692
H          -2.35848304801375    1.69181963653582   -0.64542271625021
H          -1.24418059430150    2.45390017836832    0.64412569554641
N           0.25912333143632   -2.57888182111751    0.90326241439638
H           1.01180533075828   -2.37916702167429    0.21569066549913
H           0.40462436532728   -1.97245878260294    1.77780107069753
H          -0.64178986449307   -2.21559857690939    0.44667710746702
H           0.19719561537053   -3.56652201935339    1.12451654633808
