    26
        -50.46822086  Gyration_radius:  2.44900196594 Dipole_moment: 4.551
 S           1.93964651581336   -0.68085709761825   -0.02266116130977
O           1.27302758677060   -1.95834171333336   -0.06190956635552
O           1.67079123879948    0.13075330489076   -1.20841880138276
O           1.69772080067158    0.07769792040953    1.19398991333296
O           3.49221863707573   -0.99922404970499   -0.04018090213363
H           3.48544713367663   -1.81146746179666   -0.53405171729716
H           0.35229090824470   -0.13897718224375    2.02274216829838
O          -0.52119825733630   -0.16691245853474    2.49749184261347
H          -0.31358091861155   -0.21397107068650    3.43156101978345
O          -2.30577767907948   -0.29025415888160   -1.10423050820140
H          -1.67784311406858   -0.32796725927125   -1.85754065228841
O           0.91074628845884    2.35514875535899   -0.09641202999151
H           1.21723650127045    1.60822440325781   -0.66315902492890
H           1.40015309760910    2.20983952310669    0.72055953175685
O          -0.31774235088622   -0.30983165934354   -2.89420760651663
H           0.44743902936635   -0.25125015675420   -2.28387694594910
H          -0.17187233370963    0.35658254170502   -3.56729314236237
O          -1.32826959464324   -2.08079096560089    0.57413802224280
H          -0.40927638079486   -2.18783018965743    0.26000061789113
H          -1.24548012388366   -1.60564401767597    1.41104204999251
H          -2.08367370490386   -1.08373215818171   -0.55587736810398
N          -1.51465307258885    1.49654696682642    0.56497632605991
H          -0.59716707172835    1.91838137643992    0.23981492050509
H          -1.88309958866095    0.78656505865981   -0.19390213378982
H          -1.31393263492715    0.94936233408655    1.42031964274204
H          -2.20315092192504    2.21794942449061    0.74708551539725
