    26
        -50.45212427  Gyration_radius:  2.50373538019 Dipole_moment: 8.225
 S           1.42278879266767   -1.72335509934057   -0.06012991347873
O           1.24270384216636   -0.87309606901945    1.13861498102202
O           1.99586193725769   -2.99500129302500    0.21706007090556
O          -0.08611436127277   -1.92808713369644   -0.58245523668721
O           2.04462592907306   -0.96229717491547   -1.13494346549940
H           1.47528483447452    0.33858758789494   -1.68123223432233
H          -0.64296187308100   -1.94167024033111    0.22266487816764
O          -2.50487092249630    0.80167708816421   -0.05766890407425
H          -3.33675709259655    1.22658209790189   -0.26823961388467
O           1.07212652636527    1.22041630093509   -1.97601597893553
H           1.74734213293643    1.64158207781131   -2.50881530705500
O          -1.96059630010159   -1.56626501696683    1.26223057583956
H          -2.25829701525184   -0.71026224693001    0.90479417511479
H          -2.67696417047404   -2.19072621608188    1.13566292874861
O           2.04283910418167    1.38690939973247    2.52409368836228
H           1.95135313700186    0.48284758695046    2.17851128719296
H           2.62045131071089    1.32410748255966    3.28520826964308
O          -1.32420993329809   -0.10350281892756   -2.18951413459676
H          -2.12922191660266    0.46338869323425   -0.92473241955685
H          -0.56156229718511    0.47048244836031   -2.37096800022142
H          -0.92972597997641   -0.91563141546148   -1.82449011887502
N           0.13528261516681    1.34362017084447    0.54087085285973
H           0.52532797959704    0.35186506425309    0.78471685642113
H           0.52989479354249    1.96016221958632    1.25194847129256
H           0.49879773523280    1.56608062903846   -0.40678906107890
H          -0.89339880806668    1.33158586750834    0.53961736267247
