    26
        -50.45598014  Gyration_radius:  2.65696880751 Dipole_moment: 5.369
 S           2.61435924251553   -0.11556614766094   -0.86060322360799
O           2.46440387129463   -1.08273632196611    0.23330412045819
O           2.35292055541347   -0.67996090817522   -2.15121650909492
O           1.80252874986514    1.07439132838861   -0.58224332003430
O           4.12432561569672    0.36203717770186   -0.82122015566710
H           4.23059375144844    0.73960201038098    0.04799831405021
H           0.50614334497637    0.73271827730844   -1.54256698738914
O          -0.87985392607810   -0.49824704108219    2.22617423601718
H          -0.34840125608697   -0.70484853892254    2.99562436063618
O          -0.19613728392626    0.23648433219904   -2.02876650497261
H           0.29015510274329   -0.15395406005271   -2.76335508897186
O          -3.18208099136915   -0.58357489413728    0.70984454780224
H          -4.01640205001394   -0.35841911877190    1.12380597479293
H          -2.51192550646168   -0.57634005872297    1.41124567534817
O          -2.11588439713211    1.65959227044344   -0.54685594724807
H          -1.62244197058516    1.35058419251273   -1.31601263310703
H          -2.59751348731905    0.88144430863790   -0.21718293781044
O          -0.09674823396399    1.72534022513827    1.23738504445266
H          -0.56947956671848    0.41862752097074    1.91064889486698
H           0.67400701686149    1.56935688171640    0.66066831508095
H          -0.84145134694314    1.91609479840014    0.62359485144188
N          -0.03732761021104   -1.60630119886335   -0.07449298873964
H          -0.28523567289373   -0.95416701019273   -0.86291062034634
H          -0.30415564701159   -2.55973375801873   -0.29500212758948
H           1.02787835934824   -1.51298143486268    0.06378964485864
H          -0.48227667345414   -1.27944281241789    0.81834505476408
