    26
        -50.46283985  Gyration_radius:  2.52124799676 Dipole_moment: 6.021
 S          -0.10466236468459    0.19937047002607    1.05807947271128
O           0.32280619388288    1.55267651039845    0.77483295909070
O           0.93613129822671   -0.78402638876677    0.66295831592537
O          -0.54624984489508   -0.02593574834988    2.41174695094335
O          -1.32790652448611   -0.13646427279754    0.15019988379265
O           2.34563196737052    2.41294554611851   -0.87695573330921
H           1.79188779713665    3.03261697258745   -1.36091082399947
H           1.81537903809711    2.14819125788315   -0.10689499881838
O          -1.46973103432512   -2.38623100491343    2.86733004589967
H          -1.02093279537680   -2.67255854933764    3.66527837916002
H          -1.22366467892718   -1.42545810542987    2.75632097399530
O           1.85483869482798   -0.09440660309137   -1.77773635620405
H           1.69684678336451   -0.43278530112140   -0.87879858111696
H           2.25223615576820    0.78778600168479   -1.63417110788505
O          -0.58201999624796    3.03560382545906   -1.23559751677387
H          -1.37414873933542    3.51657579137485   -0.99371109185193
H          -0.28362681402139    2.56953360359634   -0.42460948811484
O          -0.66183067759176    0.49494450879720   -2.18436315986966
H          -0.67049434990760    1.46931192808918   -2.12283726294705
H           0.30166210444073    0.23779625036302   -2.19786538496502
H          -1.09372613653909    0.12595923295240   -0.82588868542002
N          -0.59639685814447   -2.76926216008024    0.43380897707784
H          -0.99420332216754   -2.81741803752706    1.42137576257608
H          -1.31891392529209   -2.41326354136010   -0.19057256349532
H           0.17295222991822   -1.97028638780843    0.49965273045667
H          -0.22186418101364   -3.65521578884200    0.10932830296803
