    26
        -50.44731624  Gyration_radius:  2.51342484316 Dipole_moment: 8.278
 S          -2.32696804953425   -1.24232358396445   -0.47848070143760
O          -1.40918749432150   -2.30325303826857   -0.81824397850535
O          -3.70850150353543   -1.56719521736653   -0.33457094757197
O          -1.85198387791667   -0.79335464663245    1.03739709608710
O          -2.05111210589376   -0.03293390695944   -1.26775597483450
H          -0.69289701238139   -0.30423008707259   -1.96418313802547
H          -2.68359385312655   -0.61138898427407    1.46345074546965
O           0.23005016762380   -0.60058788057614   -2.23006563783250
H           0.08159854197380   -1.40773879559177   -2.72795503478110
O           2.66191461922183    0.56479710035403    0.80383526138834
H           3.61208125881710    0.64793649812319    0.72377256379418
O          -0.85277020436960    1.94283995292318    0.09824362136149
H          -1.40759594993204    1.31803540345789   -0.40772101406062
H          -0.65604144102037    1.51048685106641    0.94379315281300
O           0.38903776189058    0.84962982106244    2.37651951151966
H           1.28440440533528    0.91501918318904    2.00962266493563
H           0.32621404816141    1.50048630917846    3.07635169172107
O           1.46270693890563    1.72020070694451   -1.16161809945077
H           1.21408481649344    1.06494285900730   -1.82509397448099
H           0.60533085623302    1.98190288363638   -0.73955787001316
H           2.26470950626348    1.08071070861433    0.03063295180862
N           0.72290456273181   -1.25228939735106    0.29568649855978
H           0.78613592476875   -2.26118194182515    0.40427046383045
H          -0.11911122058790   -0.93779484673112    0.80590928230299
H           1.56669452016322   -0.73987114133657    0.62583044854444
H           0.55189479403596   -1.04284480960847   -0.74006958314222
