    26
        -50.45122982  Gyration_radius:  2.478917548 Dipole_moment: 5.270
 S          -2.21211600193826   -0.09230051811659   -1.02854535009652
O          -2.20538968288107    0.08411546415103    0.40603376593099
O          -3.38018481140240    0.30505696197075   -1.72195761648983
O          -0.95427892676344    0.60817639463257   -1.61156320889619
O          -1.89973191096660   -1.57544602468430   -1.33266192313239
H          -1.21989106631843   -1.85222353356812   -0.65378485094500
H          -0.56232388714263    1.35181523801385   -1.01691944890613
O          -0.16250771071872   -2.29680838246198    0.44099610675300
H          -0.62092069961092   -2.89120127427464    1.03769425683693
O           2.41512620648327    0.79680753687198    0.02105298232147
H           3.32276842197657    1.04055485286827   -0.16188328554262
O          -0.99911554763255    1.52994375651879    2.19069639715887
H          -1.61567027188481    1.92446200226147    2.80868228392296
H          -1.53581133420969    0.97448356707853    1.57645786720234
O           0.17618863517282    2.31680384657288   -0.13353147661575
H           1.06093594109255    1.90116964746875   -0.07795307961564
H          -0.21438175279787    2.22654323090402    0.75528610910733
O           0.91809853699649   -0.46256848352522    1.97024494007574
H           0.27344043030502    0.21719904500742    2.22161081530023
H           0.22787553525967   -1.58257189012185    1.02170290532662
H           1.57216852728116   -0.01393918368237    1.40975703034677
N           1.52839409281666   -0.98855475602097   -1.71554773415890
H           0.68801825774389   -0.51625302212852   -2.03767055117296
H           2.02779507799140   -1.32930089810234   -2.52707528681895
H           2.14669396042334    0.11450450772819   -0.66748066652456
H           1.22481998072039   -1.79046810536105   -1.17364096137115
