    26
        -50.44542021  Gyration_radius:  2.55004060868 Dipole_moment: 10.437
 S           1.29907132738931   -2.24651567717548   -0.81116963582451
O           1.52652481307669   -0.98378943824261   -1.50086643309652
O           2.35576396607711   -3.19869407782449   -0.87220519079946
O           0.86904880317210   -1.94144986073289    0.58767816557173
O           0.00636583280655   -2.87130246195747   -1.49094873739260
H          -0.54021957411493   -2.08310310001884   -1.61576512518977
H           1.44666657251262   -0.60002128768183    0.77606386309242
O          -1.61865227167262   -0.61650276341073   -1.47981124412139
H          -2.44485994156294   -0.92311921678149   -1.85465170826813
O           1.78451004893980    0.36516813459539    0.86405958327648
H           2.72824435502324    0.30186854105409    0.71132301284272
O          -0.26340606102935    1.26794898171457    2.33254711555487
H          -0.09629009676245    1.26475389124516    3.27601954895063
H           0.56344766766893    0.96726057007273    1.90017784571513
O          -1.14418562810140    2.93760679260223    0.38818663564019
H          -0.86336477724577    2.47356414055911    1.20109834912803
H          -2.09936338918949    2.86296079698028    0.35081123092355
O          -1.49712492945719   -0.96843216685323    1.07003607462676
H          -1.24616505946374   -0.19097849052609    1.58909872320142
H          -1.68323311870475   -0.74609039650012   -0.48527199979766
H          -0.65810456797689   -1.48758696726835    0.97397408205951
N           0.30895382606801    1.30980515053743   -1.19283808539903
H          -0.23596860228117    2.06398787003580   -0.71371144311501
H           0.83796437998070    1.63597495202455   -1.99506466251608
H           0.98605036968370    0.86132204981574   -0.51068456491322
H          -0.32167394484150    0.54536402374539   -1.49808540014238
