    26
        -50.44542022  Gyration_radius:  2.54997104039 Dipole_moment: 10.432
 S          -2.68589666730616   -0.04963868429399    0.41873780776732
O          -2.13725094469899   -0.51619826585868   -0.84743640995273
O          -3.94154235528515   -0.59930207888915    0.80373953054122
O          -1.63330201763239   -0.20843305981822    1.46833297902611
O          -2.84297173966552    1.52276356509961    0.25635146876999
H          -2.03691934638361    1.74313113376500   -0.23083849295513
H          -0.80601447373718   -1.27581864209057    0.88149016155041
O          -0.19445246522026   -1.96151209024069    0.42387929634902
H          -0.76055639223776   -2.71854234676116    0.26772694351803
O          -0.34676734170021    2.09600862363795   -0.82298631199915
H          -0.35050432117033    3.04824295648847   -0.92496206276552
O           2.11586748956131   -0.94937281037295    1.32016462427501
H           2.44801589250558   -1.37847992458905    2.10985306317417
H           1.30226674012858   -1.43063753192651    1.06039501669085
O           2.95151486713816   -0.21668894437131   -1.15156160560473
H           3.33239812612886    0.66047285470972   -1.08142046504629
H           2.82211332700073   -0.53458715491119   -0.23661230646501
O           0.44922770320163    1.35350562635938    1.51278008198482
H          -0.38862653704734    0.84264295610297    1.65292315409985
H           1.14876254244958    0.68470598035625    1.52481305064428
H           0.02307936633016    1.90160145792558    0.09103595607654
N           0.32466549185711   -0.40413882349293   -1.72201459728803
H          -0.03187705944981   -0.74906931851269   -2.60731634077363
H           1.36922125295430   -0.35371809622503   -1.68039608025377
H          -0.09067374950620    0.52755769593355   -1.53591902730483
H          -0.03977735820780   -1.03449509802532   -0.95075943405197
