    26
        -50.46197613  Gyration_radius:  2.55907584135 Dipole_moment: 8.590
 S          -0.85443104428560   -1.46940201248674   -0.05040845832821
O          -1.72509389443476   -1.33987754189183    1.10340645865630
O          -0.81414932068979   -0.28017778711552   -0.87383874818104
O           0.49881575732961   -1.88242594592646    0.34454447023933
O          -1.42188328819030   -2.61719368644308   -0.96363896424194
H          -1.43150701296239   -3.38122518993318   -0.35738956950483
H           1.37553569794789   -0.64903223744944    0.62548895076703
O          -0.80259561348865    3.01192848726423    0.32277791979735
H          -0.79887420251798    3.74431155568676    0.94138833786565
O           1.94045756442058    0.14984319879759    0.85827324402836
H           2.81569864861356   -0.20275805300799    1.02882841355808
O           0.37567515650822    0.57895363960761   -2.96965847799735
H          -0.33185106622517    0.92433014697333   -3.51755337127283
H          -0.08315041175750    0.07297867791456   -2.24772656639014
O          -1.01989993429257   -3.93595507230360    1.30990936142043
H          -1.54010600528459   -3.19452967857534    1.65429931551483
H          -0.13208789713119   -3.56878688755935    1.20163787505208
O          -0.64334198395490    0.94550380091377    1.93214978262109
H          -0.91059488296659    2.19407716942409    0.87866145047747
H          -1.16403737270825    0.15489440922349    1.68366106901419
H           0.28062334926950    0.68586596930681    1.83812953483593
N           1.29859671147991    2.03282503469213   -0.95690526461106
H           0.97336712109674    1.53400674357774   -1.83484657630261
H           1.61357764686836    1.29285208370016   -0.28225332011209
H           2.04184817460656    2.69395623526452   -1.15385572423595
H           0.45940810274331    2.50503694033869   -0.51508115268076
