    26
        -50.46197620  Gyration_radius:  2.55915046736 Dipole_moment: 8.587
 S           0.93348717941569   -0.52439655449997    1.32078884436320
O           0.18462013243142   -1.68600579239890    1.76358750228195
O           1.12271255362092   -0.47744905457121   -0.11310778943029
O           0.32941801022619    0.72085163451888    1.81304666451857
O           2.37200325082625   -0.60158486932413    1.95167289718285
H           2.17940257494160   -0.63777080119787    2.90719379848418
H          -0.70820058406926    1.24742153424651    0.80545384356738
O          -1.42244849575878    1.57179055164388    0.17609419603162
H          -1.70516716589289    2.41648037095785    0.53109265628029
O          -1.26868880651493   -1.39601941407678   -2.50228263846511
H          -2.10015963330846   -1.69503541422878   -2.87418828418398
O           2.15645394171363    1.05932213837916   -1.87831108894172
H           2.70747485058650    0.47675240357785   -2.40465196363238
H           1.90421216928058    0.52209722835331   -1.08113192969378
O           0.86239334109565   -0.60401798570658    4.14036720705200
H           0.43038309542862   -1.32430740377745    3.65720464114646
H           0.51162090978420    0.19741786413560    3.72879078009328
O          -1.82439207301052   -1.30716274400408    0.06063694007217
H          -1.93705350027309   -0.36132636962931    0.21113892749669
H          -1.36429601389917   -1.50028288246245   -1.51759880510408
H          -1.11408027515162   -1.58702285299577    0.67309371110706
N          -0.45859383117051    1.11653749133335   -2.29718229204060
H          -0.80955007699814    1.75167022328744   -3.00552162015595
H          -0.82464064317873    1.36501955742151   -1.34527705806520
H          -0.75723077579295    0.11711957912296   -2.48274324080569
H           0.60031986568112    1.13990157189317   -2.23816588914791
