    26
        -50.47059067  Gyration_radius:  2.47638465579 Dipole_moment: 3.257
 S          -2.05689403861405    0.22545999467694   -0.69587338762565
O          -1.22563913705774    0.82875324213755   -1.73036777641194
O          -2.48439878067111    1.16651339401871    0.30923847471010
O          -3.37371726722371   -0.28012142871872   -1.42481192232688
O          -1.44692525902945   -0.98029129969813   -0.14742986465784
H          -0.39875347927226   -1.66637925074108   -1.45401049983185
H          -3.86991342742625    0.52756386851601   -1.50288155929893
O           0.15287522104319   -1.36631899296384   -2.19746354698557
H          -0.28182287075541   -0.52009652371733   -2.41684030320715
O           2.30412222575598   -1.06302504558876    1.66764935427026
H           2.60002785423246   -0.35387150780466    2.24214324740724
O          -0.28773326177819    1.65765989278047    1.73924190601211
H          -0.19970183311380    0.78389287220319    2.14238669008811
H          -1.16774023637814    1.63995016687510    1.31394451597986
O           0.89435433336496    1.98661509839886   -0.61986549750966
H           0.09372009256419    1.73804924231541   -1.12720989753818
H           0.58358002084357    2.02000391407190    0.31419578341995
O          -0.32362260819037   -1.11773054376033    2.18521460970715
H           1.35590557950790   -1.19890683954197    1.88177605881469
H          -0.77663742275428   -1.07791451356679    1.30431838455773
H          -0.82232180062439   -1.74475199936457    2.71082390508102
N           2.17456513945338   -0.25289933196419   -0.90309235753074
H           3.05748045248993   -0.21285685709877   -1.39937245299079
H           1.74083102797204    0.73400316672333   -0.79199814666787
H           1.45848998826821   -0.81507330337246   -1.45271788863075
H           2.29986948741137   -0.65822741482618    0.05300216114950
