    26
        -50.47250299  Gyration_radius:  2.48738685572 Dipole_moment: 2.891
 S           2.13719737463212    0.67586193682496    0.34766018847713
O           1.58689270048269    2.00384424965886    0.10421732323403
O           1.24901526324559   -0.14065384124846    1.15261677064306
O           2.56268430812568    0.02999622248206   -0.87924948762272
O           3.44726338680099    0.88616095125231    1.21320811963334
H           4.02052907678681    1.30186464815562    0.57840722000032
H           1.33933064342777   -0.45185605905842   -1.77948050328545
O           0.56703937082803   -0.80195244774806   -2.29637997615751
H           0.86419329807418   -0.86294621198861   -3.20538117447965
O          -2.17950559359032   -1.60402214921683    0.51756073563944
H          -2.74714538466662   -2.36115137649703    0.66256031044940
O          -1.82152370993561    0.25093861075046   -1.48618718011017
H          -0.99903323781638   -0.10209662314897   -1.87513847530589
H          -2.12426929241635   -0.43299843649484   -0.86180580692180
O          -1.16939402069090    0.25266550183051    2.28691749960829
H          -0.22924924744241    0.04157376597185    2.13756007539392
H          -1.65903475933200   -0.45064548912187    1.82255404172906
O           0.26479416323804   -2.34209516902708    0.00277297228768
H           0.38609809137109   -2.09557429277598   -0.92594729019785
H           0.74299988656003   -1.65032918405761    0.50274062349161
H          -1.26169243072282   -1.96633607857918    0.34813889586013
N          -1.01067898461049    1.99360175345788    0.32435041554986
H          -1.38048060093848    1.41230380024796   -0.48436693274635
H          -1.44662001150810    2.90763149602542    0.36185381271420
H          -1.18151211678452    1.42886650640981    1.21049375459222
H           0.04210182688407    2.07734791589616    0.22032408752351
