    26
        -50.44992753  Gyration_radius:  2.49583871515 Dipole_moment: 10.213
 S           0.00401032289459   -2.17288472332151   -1.14575037635459
O           0.21590669002932   -1.23242924388275   -2.26189004121228
O          -0.36091626103745   -3.48470884999306   -1.53954229361580
O           1.42074198797935   -2.24451084674615   -0.40617133211167
O          -0.87486346858573   -1.53631627828996   -0.15246357244544
H          -1.86056565478998   -0.51198999396690   -1.03035271613793
H           1.43405978522133   -1.52554917701359    0.23866362752378
O          -2.25116543328657    0.15006610788064   -1.64056140376045
H          -1.92414161534697   -0.10509010555667   -2.50707734364432
O           1.65779823849075   -0.11630158523969    1.45216381075701
H           2.39270185039180   -0.46560568434155    1.95880723666455
O          -0.39501474964159    1.93272140609053    1.96711898627904
H          -0.24219262292663    2.67371569340026    2.55499151032597
H           0.44257030834261    1.46117372818786    1.86845196124647
O          -0.97371081985146    2.27642657244644   -0.74103596734205
H          -1.04826977448712    2.23113094854626    0.22474276581227
H          -1.60472569986347    1.60000253357172   -1.09541196210716
O          -0.57011036660022   -1.00994718095091    2.35565704798870
H           0.81757343640772   -0.49209248849346    1.87682163837988
H          -1.14931955187454   -0.25208457273883    2.48341073826875
H          -0.81050679563854   -1.37133753416592    1.46688967626140
N           1.16371779730738    0.85429369369568   -1.18134317842729
H           0.32925888496710    1.52572369776991   -1.04332765677091
H           1.89099230935584    1.28246947052168   -1.74337506409129
H           1.52611922496340    0.57451163085354   -0.26460448018921
H           0.77005197754626   -0.04138721827347   -1.69481160129463
