    26
        -50.44216617  Gyration_radius:  2.4238475555 Dipole_moment: 7.288
 S          -1.15706223245953   -0.29927193025962    1.23494886020647
O          -2.04101049026834   -1.34559801181469    0.73840290901189
O          -1.46255505767097    0.18525961076414    2.54842962905294
O           0.24731791369192   -0.70645198532514    1.07397096122589
O          -1.34852422212520    0.92247531218017    0.23589531964236
H          -0.59034219865914    0.94243348627449   -0.37621083147013
H           0.61065648811377   -1.97256196508065    0.30427019063111
O           0.77490614737738    1.11652269105210   -1.42199931477580
H           0.72833664590147    1.93462706560752   -1.91717115603538
O           0.95987573295961   -2.65772925475823   -0.35279871034410
H           1.88106064680695   -2.79796793762280   -0.12707970344382
O          -0.21630265331630    2.52347386563794    2.33388262814412
H          -0.92841304504980    3.04440952978749    1.95839366792563
H          -0.62589268680318    1.65533589405906    2.53345113189545
O          -2.12088483779716   -1.38552624394483   -1.76439401069133
H          -2.51308804794749   -2.23780698026932   -1.96781483162106
H          -2.13105320269835   -1.32234916515830   -0.74048322891862
O           0.29347363986883   -1.25084204923212   -2.30981524674154
H          -0.77723391591352   -1.30764873139366   -2.15400504769552
H           0.54907942988686   -0.31613414030685   -2.03103812941346
H           0.65965608492598   -1.89145840494224   -1.56505114812167
N           1.93350631143771    1.48432642802574    0.80502551096160
H           1.68735156464827    0.56594760662841    1.17300327062462
H           1.33661193763729    2.13272738021639    1.32474524311074
H           2.90077792987458    1.68472593794080    1.02221327382508
H           1.34975211757609    1.29908199194949   -0.55877121696475
