    26
        -50.45078021  Gyration_radius:  2.44777447805 Dipole_moment: 3.728
 S          -0.65826268426944    1.39859650037410   -0.62369566285385
O          -0.45125334405294    2.28704524436968    0.49289155574530
O          -1.28723091892708    1.95241609999516   -1.77569905573199
O           0.69173367201821    0.77373231721504   -1.00472760744807
O          -1.51507972235822    0.19953529107876   -0.15219028138676
H          -0.94912688922344   -0.55611424652251    0.20858265204451
H           1.38673651479089    1.01144662714600   -0.26177259251616
O          -0.09918789137953   -1.81001332309055    0.55822376202102
H          -0.70120178667407   -2.53866200766610    0.72104010915376
O           2.15274084107322    1.43572441140579    0.90480389102298
H           1.61042403927931    2.19682951592426    1.14344431909410
O          -1.42489562087337   -0.44954624982414   -2.99886364976359
H          -2.33702435888090   -0.67092020049322   -2.80097164422826
H          -1.31621539213803    0.47215065794296   -2.70790507020314
O          -0.97754664955690    1.17181718616551    2.86065076488888
H          -1.21646843560379    1.85671023340425    3.48683718400413
H          -0.88340331481701    1.61166236790321    1.99251006887372
O           1.22728425190906   -0.36922763684489    2.53976577159036
H           0.43983982632696    0.11466951148301    2.85409666922851
H           0.88434874060625   -1.03610697777937    1.92712941536606
H           1.94798281935347    0.72910330472352    1.58574673151872
N           0.73226896181149   -2.01309560711108   -1.87892253895228
H           0.29251333044488   -1.94979624909727   -0.38423770100692
H           1.54110312926247   -1.40775359074212   -1.94834322213921
H           0.93567732050962   -2.87618168599884   -2.36740242483444
H          -0.02575644862202   -1.53402151397267   -2.37099144347284
