    26
        -50.46584901  Gyration_radius:  2.55198167957 Dipole_moment: 7.049
 S          -0.64441444594675   -0.73756682092630    0.09682584679121
O          -1.19295180982825    0.36741046103846    0.88242161730397
O          -1.56237626536706   -1.22639719445920   -0.90175022930323
O           0.62554476527805   -0.17159824635973   -0.63786177408857
O          -0.10547299147521   -1.78238510654693    0.96409083659908
O          -1.18753469533157   -1.03876623195846   -3.51769374964803
H          -1.40915637781895   -1.19481988354017   -2.57436699372636
H          -0.73462725754281   -1.82728778414484   -3.81832360212110
O           3.10106678443265    0.08628060288331    0.43004895896086
H           2.25417826219349    0.12134251083604   -0.05605751603057
H           3.70531585859331   -0.41659029693272   -0.11835960889324
O          -0.02168164904222    1.40193243855575    2.95871488126226
H          -0.49157205674261    1.12107597580302    2.13278103011239
H          -0.70678380362576    1.52138464593290    3.61821037861286
O          -2.56820327421267    1.42092335080809   -1.12253466112220
H          -2.14827066063877    1.13020110948453   -0.28886863472597
H          -3.00356502407263    0.63413672581664   -1.46311927890184
O          -0.28816576918665    1.27495362751629   -2.47118078950028
H          -1.14067959280827    1.55957126845521   -2.06204033028618
H           0.28871448893799    0.46172626852436   -1.38873891770946
H          -0.54187633208515    0.57878184547984   -3.10916247898001
N           1.57765725091836   -0.66360411842836    2.51902745739821
H           2.34447417493541   -0.36334160095709    1.88135686887544
H           0.86261181136592   -1.20724276832915    1.89910500512975
H           1.92384174098314   -1.23572477957462    3.28117955407536
H           1.06392684808214    0.18560398101929    2.86629611991923
