    26
        -50.47056352  Gyration_radius:  2.39953205575 Dipole_moment: 4.204
 S           1.11821659205652    1.29159662557773    0.58519026815244
O           0.47113997747355    0.42848595893465    1.55002484474565
O           0.64070255481529    2.64927353822911    0.56636706007566
O           2.64481553210397    1.37024565932614    1.04289455987812
O           1.14374272918754    0.67620899428009   -0.74527496732961
H           1.95100892339470   -0.69230057010222   -0.11452335117356
H           2.91285342754343    2.25353696406114    0.80918704525564
O          -1.64658317643284   -1.06695670117927    0.92856070464495
H          -0.92222276957012   -0.58771191301430    1.37972759272349
O           2.10765045417643   -1.49592117257500    0.41946635256020
H           1.94404628363356   -1.19584499912980    1.31995865510717
O          -1.95565842993875    2.57546512301768    1.17980347082726
H          -1.01802162330302    2.79402528630277    1.01355238371917
H          -1.96229408870436    2.05845258168220    1.98808154033012
O          -0.16929500594395   -0.86720343374698   -2.61154391936638
H           0.49054073273908   -0.29095812884449   -2.19075739391085
H          -0.99606046243884   -0.37541608776221   -2.53535920511710
O          -1.61239375205494    0.89311038592134   -0.89149565933881
H          -1.92700715937140   -0.42817323570640    0.23723134508745
H          -1.97216020410643    1.59613352234577   -0.31371040876587
H          -0.65113348935152    1.00704688614223   -0.84814687720507
N          -0.12297515346157   -2.55970308434213   -0.56057293344754
H          -0.17628548950085   -2.04938163207625   -1.48435251862801
H          -0.27944438832109   -3.55563280409963   -0.66117262248628
H           0.82577608241842   -2.34200307197660   -0.15384215456771
H          -0.83895809726167   -2.08637469148158    0.09070618793993
