    26
        -50.46809717  Gyration_radius:  2.53106923931 Dipole_moment: 3.037
 S           0.24197376168778    2.00417191917409   -0.11144939765432
O          -0.96301615027662    2.05169804634117   -0.91625873338038
O           0.08743548127019    1.18154535759949    1.07437487621337
O           1.40241361921347    1.63127091501587   -0.91105350857584
O           0.52247134273050    3.47022181415209    0.41296317396842
H           0.77468467644210    3.94416491020181   -0.37339139845623
H           0.68445355286879    0.47687835180074   -1.89923529373055
O           0.16001659627683   -0.24520661609003   -2.30730791530671
H          -0.55131510691548    0.20003340584813   -2.77400256514599
O           1.43104101608260   -0.96792101844889    2.26501122895741
H           0.97267996407813   -0.11977176445386    2.18899092948060
O          -3.14039548071799    0.54228639842467   -0.62595711019869
H          -3.78169701117580    1.02147474755331   -0.10002374114191
H          -2.40463732157134    1.17034264496274   -0.79447942833990
O          -0.21442307063346   -2.93207631596758    1.63265663834233
H           0.39281800938403   -2.25617942236407    2.03350447749069
H           0.33442792896462   -3.68806847486479    1.42104960060859
O           2.50334750949418   -0.73795292454072   -0.23791882985788
H           2.35579192309726   -1.19427685673374   -1.06882801791937
H           2.24710712470222    0.18849708189298   -0.40053299343714
H           2.00598250157783   -0.99483683056871    1.47966161867416
N          -1.02288143341141   -0.98099556225545    0.00253788337653
H          -0.60924664170929   -0.18444144241983    0.54545382308456
H          -2.02247069637259   -0.75167368611007   -0.13420700767606
H          -0.55522383283813   -0.95924653080504   -0.93025824392458
H          -0.85133824224104   -1.86993815733320    0.52869993455809
