    26
        -50.45745695  Gyration_radius:  2.39273826204 Dipole_moment: 7.912
 S          -0.84622925149597    0.27894507577664   -1.69477036227165
O          -1.02510126536619    0.04483985144042   -0.25455829286804
O          -1.41216675981578    1.51767505951252   -2.13085421017817
O           0.76367527290226    0.39287291221714   -1.84208554299536
O          -1.16821572291490   -0.90834954850694   -2.45576986657974
H          -1.20342741354722   -2.11930842919001   -1.43347601324352
H           1.05573625791087    1.12813016241012   -1.22379605614924
O          -0.99228360877281   -2.89946570331467   -0.84575500511035
H          -1.03057208717021   -3.66828652042681   -1.41819118485229
O           1.43023790530632   -0.12103197541987    1.99213059408560
H           1.84573920386424   -0.33140236708431    2.82942141706019
O          -1.15608824223440    2.58669649931965    0.42220664328629
H          -1.48291025784678    3.09814342175286   -0.32267853580989
H          -1.24205299150350    1.65770164642667    0.11369033071124
O           1.43459631760927    2.00328432987398    0.06454441663273
H           0.56455375875544    2.41614824746630    0.26120253366041
H           1.59077048528389    1.37318674172959    0.78280830833788
O          -1.09593503352309    0.35531043874712    2.37868348799351
H           0.46754211573212    0.07297001973801    2.19829965100823
H          -1.27304602367956    1.30111147064650    2.32947908618809
H          -1.30823153969061    0.02578894438309    1.48583709391530
N           1.23848519015935   -1.66144464528222   -0.23645026684645
H           1.13306021962074   -0.90361232801890   -0.96310753608892
H           1.28000118559689   -1.17592715043404    0.68984701422018
H           0.35548154279673   -2.25239170007030   -0.32780416736458
H           2.07638073214111   -2.21158446370098   -0.39885354664981
