    26
        -50.47071293  Gyration_radius:  2.41585059289 Dipole_moment: 4.163
 S          -1.34205304062362   -1.08419306476258    1.06458294391096
O          -1.60956837683492    0.29144572694527    1.44912087243168
O          -1.54055576129127   -1.35580566645985   -0.33873295068412
O          -0.02256267293637   -1.52217889618468    1.52548862068242
O          -2.39822019523549   -1.96986379670416    1.84358054401026
H          -2.36130815787658   -1.60616368155167    2.72156467491542
H           0.71916793798140   -2.17681558585229    0.20832826886437
O           0.94849852737468   -2.42670136262352   -0.71677770577943
H           0.08917329589500   -2.63911758533529   -1.09829102885276
O           1.76198474366012    1.80809007839524    0.13885013007036
H           2.49726582916878    2.38909132055201    0.33680987428774
O          -1.14469682543135    0.41714210361636   -2.28691498984862
H          -1.25744195242397    1.23384724156016   -1.74474713331123
H          -1.48380642738888   -0.29306632154969   -1.70523447420000
O          -1.04518353142273    2.21808402443860   -0.35615108671348
H          -1.37296268673476    1.59569729896667    0.32129326827147
H          -0.09726287838202    2.31242598096526   -0.19333787721398
O           0.85344997518661    0.79730648890465    2.35309999771233
H          -0.07676525177546    1.06693890781163    2.31541695224917
H           0.78584103612694   -0.16182093695069    2.17126360942947
H           1.47317493053854    1.41761208030179    1.01559111233687
N           1.35448468245018   -0.05732709556209   -1.81632884807902
H           1.99454079706768   -0.03864660299638   -2.60220312768912
H           1.31264959024075   -1.02736482752526   -1.37985136007471
H           1.62868736097788    0.64050847195789   -1.09827854611720
H           0.33346905121284    0.17087569875788   -2.12814176059633
