    26
        -50.46631284  Gyration_radius:  2.39738951478 Dipole_moment: 8.092
 S          -1.42119825507834   -0.30649260138918   -1.26164096812268
O          -0.26888976724901    0.57676229604255   -1.56657664405042
O          -1.65214799059269   -1.26204911480972   -2.30140459990639
O          -1.16431352327382   -0.96745265194079    0.03630423550131
O          -2.64831293652399    0.60507938142974   -1.07663247434223
H          -2.41763049958129    1.22078639487463   -0.31905852794722
H          -0.40815818365027   -2.41105104290180   -0.46358931872283
O           0.16640313042808   -2.92259584228585   -1.07229152307335
H          -0.32114723442479   -2.85246732000745   -1.90419306270455
O           2.01147751995781    0.33417010580896    1.44632641115998
H           2.60387878325275    0.41094402572478    2.19519684198218
O          -1.85466353166258    2.07569400998959    0.90769259361948
H          -1.58853365689219    1.47446984159237    1.61715993068891
H          -1.01568313876399    2.48073798329616    0.59853001294607
O           0.64916289133728    2.52745277280757    0.01395723094754
H           0.34433989895354    1.94873061513524   -0.71032030771257
H           1.24650250426363    1.98440208261723    0.54191821109464
O          -0.49493614411092    0.01119508299842    2.28702269612620
H           1.10219146408806    0.22305830506216    1.81441160751392
H          -0.78763344345086   -0.36994568787523    1.40832602998368
H          -0.76953345776063   -0.62376515302628    2.95011906614778
N           1.78018710549222   -0.84172950072067   -1.02979501254569
H           0.96972329946004   -0.18516894763980   -1.34348426567621
H           2.57288442190900   -0.78198620923748   -1.65942818993133
H           2.03627599516681   -0.54546763814022   -0.07209335509096
H           1.32975475869840   -1.80331119740631   -1.03645662788954
