    26
        -50.45730950  Gyration_radius:  2.49944456379 Dipole_moment: 4.624
 S           0.70903773945805    2.05510345117864    0.10729373231959
O          -0.50934255414231    2.03409402321411   -0.69963699401010
O           1.36704008323262    3.31020505307186    0.20372398613047
O           0.20459231365142    1.61659132995544    1.56816705965357
O           1.59537488915080    0.93902543960855   -0.28526434173222
H           1.22192680158922    0.24391664382770   -1.73216475649505
H          -0.74958036806871    1.46208038840003    1.44454214298724
O          -2.39145718247996    0.85553405640553    1.30537245418845
H          -2.85386129601561    1.67330547735031    1.10923261804151
O           0.97886436142625   -0.30004411127290   -2.52073959977270
H           1.36600349712864    0.14693154753056   -3.27401718582027
O           1.65385538306471   -2.68714857647535   -1.36320901227288
H           2.60406061275316   -2.78326166876056   -1.43801282000451
H           1.41012264081341   -1.91854965038696   -1.91758168207094
O          -0.54446983101790   -0.69335607251843    3.00053154761610
H          -0.01314330758640    0.10953047283722    3.06716929072501
H          -1.43576460316800   -0.39078303089161    2.79148328778725
O          -1.56092085790565   -0.24910373783190   -1.12050730149219
H          -1.16351072411798    0.67162944729336   -1.04654896417184
H          -1.28342437930107   -0.55469531254811   -1.98909115310817
H          -2.37223848389220    0.35934017733873    0.47269519459978
N           0.35469093333537   -1.20860518586591    0.49049167238257
H           0.96786930315321   -0.35749162721362    0.31993248716074
H           0.10221692289555   -1.27559545999258    1.49507873169877
H          -0.50100269935171   -1.02772981174682   -0.08824396131036
H           0.84306077495240   -2.03092326208662    0.09930356702553
