    26
        -50.45231392  Gyration_radius:  2.52468554654 Dipole_moment: 7.574
 S           0.60668739776354   -1.06728060581098   -2.17820958287976
O          -0.41045548345244   -0.02339756618845   -2.40911382612548
O           1.53341704674457   -1.22819359983945   -3.24578986670614
O           1.41339525721013   -0.51268979558244   -0.89147962921644
O          -0.00407345550036   -2.28821316916001   -1.66761188565021
H          -0.66107823291987   -2.33507006066978   -0.29817989798156
H           1.42511382521378    0.45925447042282   -0.95982670471240
O          -1.17128236027866   -2.29757015798843    0.57792889808434
H          -1.52999259347538   -3.17760439895641    0.69864124312213
O           0.94331623406539    1.35969552799152    2.18982280809790
H           1.27857480637657    1.52831188284254    3.07077453755218
O          -1.16913573675352    2.21503341450227    0.67317509339281
H          -0.54882582223251    1.95008460302487    1.37552442852274
H          -0.60846011604204    2.54094180559114   -0.03989061060184
O           1.55022758552496    2.12453973690298   -0.37781130479978
H           1.49733235257433    1.92173589407255    0.57610434841229
H           2.44612006788810    2.41234674008746   -0.55873441441636
O           1.06907372794602   -1.20155824660427    1.71708338182211
H           1.44295467813551   -1.12955547882943    0.82263536006429
H           0.97117824389790    0.36810353129036    2.06534376523059
H           0.21629297793890   -1.64582628179574    1.57214048352857
N          -2.08918349942868    0.00252577867778   -0.52491048915640
H          -1.92009811083883   -0.85669853403303    0.03035109880897
H          -1.39007097192478   -0.02519623087205   -1.39017580953479
H          -3.04757111464095    0.04338024534441   -0.85207824790583
H          -1.84345671374026    0.86290049522104    0.02428682313229
