    26
        -50.44596054  Gyration_radius:  2.52128815401 Dipole_moment: 3.876
 S           0.37402943615230    0.42858792613949   -2.41045078786235
O           1.44518993472466    1.08282878334666   -1.69260752899587
O           0.19567837983311    0.78546785352396   -3.76661458786950
O           0.55985285372163   -1.10437466605038   -2.31587098475088
O          -0.93273182267475    0.66394584988237   -1.59423536750348
H          -0.67014584673882    1.19362249332449   -0.76753760127960
H           0.41510190893934   -1.40860474214097   -1.37333531612277
O          -0.00285718985359   -1.93190690462209    0.06481416495261
H           0.02829802076446   -2.88963329701308    0.08252585238010
O          -0.02606080687205    1.95841359576489    0.39965187255021
H           0.71558666863286    2.27860717030723   -0.12666635597716
O          -1.74875174988894    0.70697870229294    2.42155658866757
H          -1.60842846282515    1.53785853272033    1.95763895412065
H          -0.86772853225630    0.38024886522087    2.63819913247761
O           3.15614846565573    0.21387237774347    0.17388694355052
H           2.58843787849910    0.49127647504692   -0.57228013509923
H           4.01684752965091    0.60295032040402    0.01568390089394
O           1.00304522237578   -0.04562698015672    1.77229535995196
H           0.35805666698834    1.23989471840588    0.97511960076238
H           0.66937765579090   -0.81510820554506    1.27808896832689
H           1.92160548866768    0.04881442955676    1.46332812185445
N          -2.42753461746555   -1.09045199079663    0.28533213086241
H          -0.99629450619084   -1.65406265434706    0.14763839175214
H          -3.23717806826710   -1.69212935593281    0.35592833257363
H          -2.39466581657513   -0.49034411791894    1.11298773725915
H          -2.53487868076989   -0.49112517915566   -0.52507737749227
