    26
        -50.43972791  Gyration_radius:  2.68652753827 Dipole_moment: 5.017
 S          -0.60257485975628   -0.84723160084917    2.68271830790950
O          -0.25628072006571   -2.03171075132543    1.93814813300717
O          -0.48647474002904   -0.89921618509835    4.09147280218270
O           0.26879436852030    0.32578753621360    2.10307443883452
O          -2.03176481264617   -0.39721112038663    2.30267829856441
H          -2.07197567759690   -0.31830804410727    1.30536955136141
H           0.96946388557897   -0.07075211842633    1.50929094117867
O          -2.04095078495403   -0.05060929228614   -0.25664519875118
H          -2.91568949151786    0.13320018741261   -0.60263961770657
O           1.93823066403891   -0.88339222228607    0.53245158923043
H           2.27702268575233   -1.58012724931860    1.09924468944128
O           0.89301602559094    2.01454898172325   -2.55741500695654
H           1.31141320812871    2.44107607826633   -3.30577009423651
H           1.20732524408838    1.08766361406905   -2.56158348690974
O           1.80772663334867   -0.54254440017332   -2.37218304586512
H           2.31737886059201   -0.47841264520772   -1.55678015251763
H           1.09943040469716   -1.17194679846163   -2.18907986644877
O          -0.14577115530680   -1.95311977765321   -0.73056205107316
H           1.20571585978245   -1.29968154546712    0.00845603475537
H          -0.30870094378087   -2.36593528777790    0.13550320157437
H          -0.84811373837459   -1.28289638468021   -0.79824724250133
N          -0.68908141581025    2.12896887162026   -0.15377926628050
H          -1.18463062636757    3.00338069378666   -0.04127653916190
H          -0.09761100220045    1.98866129710150    0.65754933245563
H          -1.51807282804218    0.84950863867798   -0.25948645367326
H          -0.09782504368506    2.20029954466447   -0.98050929839456
