    26
        -50.43972865  Gyration_radius:  2.68617814305 Dipole_moment: 5.029
 S          -1.85235691793904    0.65942426899127   -2.09831001827984
O          -2.38581615298671    1.21495829117819   -0.88012977638553
O          -2.29306943772722    1.21519023595564   -3.32208196058169
O          -0.28630652307689    0.74331304754408   -1.98935620098437
O          -2.08623733506260   -0.86837522953924   -2.11566676168750
H          -1.72046521963021   -1.24314457957955   -1.26225532540110
H          -0.05982601692408    1.32913338325315   -1.21074410812128
O          -0.98348643825187   -1.80888348942823    0.02194951483114
H          -1.16450148630086   -2.74102165567779    0.15240241816409
O           0.09120895253248    2.19838341308492    0.12145608076667
H          -0.48547097368470    2.94735554191188   -0.04586431382398
O           2.89210727941385   -0.85518032962181    1.51411442260362
H           2.31155002336589   -0.19970711629052    1.95143310135035
H           3.66936649551153   -0.93360563534932    2.06791125901160
O           1.24736014128807    1.04699230268366    2.55658936723176
H           0.32705333143558    0.75709315701126    2.58055692475368
H           1.29397495855164    1.71219727581773    1.86098898536027
O          -1.39452423813306    0.45763002523042    1.48263569975176
H          -2.08948531384152    0.75428142214161    0.86934976748069
H          -1.18918034177371   -0.44227778026183    1.17449125038533
H          -0.43559613843087    1.57915771350946    0.68977856198732
N           1.40842744482374   -1.51918961123045   -0.86325398943925
H           0.00112979013441   -1.73394655213255   -0.30722002572270
H           1.82336679443337   -2.26896740154239   -1.40038038195133
H           1.32886837299031   -0.70335261589949   -1.45983258488875
H           2.03190894920324   -1.29745809173806   -0.08856190639462
