    26
        -50.45137800  Gyration_radius:  2.48727170232 Dipole_moment: 4.475
 S          -1.41509879947905    0.37200553596384   -1.44751913943369
O          -2.10547599487718    1.07867435006630   -0.39736351167214
O          -0.96311353026126    1.16889224269387   -2.54418099076079
O          -0.22246237407247   -0.38081472843511   -0.82375626914462
O          -2.27750615339276   -0.79176158371223   -1.95160639813622
H          -2.51413683587687   -1.26393853836468   -1.09606374000232
H           0.47690021535610    0.25832545485108   -0.41758894541932
O          -0.39652435990365   -1.45554256996569    2.00394262015460
H          -0.62469568917918   -1.72494661828415    2.89571757351963
O           1.56908648820162    1.15249736880479    0.08632169748093
H           1.86871567592650    1.44392215746942   -0.79977280903407
O          -2.66570962463057   -1.48296535418366    0.47985603080313
H          -1.80428456875780   -1.64568435955312    0.92220342403621
H          -2.86633727065292   -0.55261380081391    0.64248516100919
O           1.66907535368563    1.78053307153268   -2.50782599911568
H           0.73707229602977    1.51715627140941   -2.63912936513070
H           1.74217548614787    2.66512628583649   -2.87093732138410
O          -0.60713059666856    1.18239152089460    1.84407895116119
H          -0.43581110310577   -0.46455688826925    1.99887877767436
H           0.23997930637913    1.47874851082958    1.48742721007987
H          -1.24448810565567    1.28952025687320    1.11429608055510
N           2.44341554852822   -1.23327552158671    0.85348187842846
H           2.12671198058770    0.38042510783842    0.37481074523437
H           1.52083354871804   -1.49360452497185    1.19617449906014
H           2.62638650729526   -1.79829924452104    0.03368788647057
H           3.12242257965757   -1.48021441242017    1.56238193358392
