    26
        -50.44052786  Gyration_radius:  2.59288274015 Dipole_moment: 6.613
 S           1.94689720293812    0.96042170885218    1.37306019763976
O           0.93959734768358    1.28743802000104    2.34822398513641
O           3.30226582321222    0.99162804627845    1.77073733962083
O           1.58953081837060   -0.46000940222033    0.80616131256202
O           1.76351915036185    1.86225006078234    0.12856884735274
H           0.79723363268545    1.87826430764782   -0.13159099391301
H           0.75071494661013   -0.78768528684942    1.24095602669663
O          -0.69805292392988    1.92331013881139   -0.67064068539932
H          -0.85345510745151    2.81718577703742   -0.98103367610993
O          -0.61098951409124   -1.26683466655903    1.93197902655047
H          -0.41294559506736   -1.38675357979908    2.86294200853408
O          -1.06190533012403   -2.96774249842256   -0.22356600111829
H          -0.91787808245632   -2.48074271016732    0.60246171505225
H          -1.99395516513225   -2.88806233734640   -0.43112771908791
O           0.93884332557579   -1.72319328948637   -1.67305654257461
H           1.45395207779615   -1.37212644476795   -0.93754295721992
H           0.27961375395772   -2.31317744904095   -1.26830309497521
O          -1.65288274144048    1.09514908096322    1.77703098119733
H          -1.14446625267032   -0.41687401612613    1.87026341153380
H          -0.82717875011473    1.40271007501040    2.19644154669623
H          -1.57170903556306    1.38260138373807    0.85380836764978
N          -0.41431199196545    0.45991276113950   -2.77905665637765
H           0.17304366298798    0.90907976919563   -3.47053559156091
H          -0.62365044110693    1.32856692309698   -1.51239547120889
H          -1.24957182676892    0.13083820104496   -3.24659148051249
H           0.09774099581545   -0.36615460277976   -2.43719388644076
