    26
        -50.46846765  Gyration_radius:  2.3994203872 Dipole_moment: 5.640
 S           0.78085618950803    1.47357694715093    0.72916672447376
O           1.67626345353683    0.55333512093318   -0.01339408988687
O           1.04588512756615    2.85088929350869    0.41270684567122
O          -0.60552029269613    1.10085888370049    0.47157844837896
O           1.06082340225896    1.23094022625607    2.24303663997776
H           0.72660645019973    0.32262761633643    2.43849561650584
H          -1.46207777227209    2.72516603155238   -1.09321696460648
O          -1.03152001508311   -1.83181258116677   -1.34381951560977
H          -1.68410457568898   -2.37664646016363   -1.78535036208374
O          -0.66194782397199    2.85326083022521   -1.61170587853263
H           0.02760429182927    3.03394455516282   -0.93101679510312
O           0.30751320313381   -1.29227982737210    2.63994175724721
H           0.69763734554044   -1.68403969842266    1.80858110007118
H           0.82751768174921   -1.63207417842479    3.37028508369889
O           1.28788276436832   -2.03520976332165    0.33687726457741
H           1.59059942681221   -1.11330162405796    0.18430005105682
H           0.57609693595123   -2.18168519347864   -0.30115250720273
O          -1.97532091246732   -1.06009454639792    0.95140627754100
H          -1.44193470852761   -1.56764089038499   -0.46631362116596
H          -1.49904322709482   -1.40662801120868    1.71498265279917
H          -1.59342620949572   -0.16136961026473    0.82694400389131
N           0.26163631852879    0.42868769480083   -2.15538917958816
H           0.72319429177855    0.33399897570031   -3.05407743929598
H           0.96859920009054    0.44732316353778   -1.34572245966730
H          -0.23269174224007    1.36519838461236   -2.06393678220956
H          -0.37112882331248   -0.37702531881109   -1.96320687094006
