    26
        -50.44983150  Gyration_radius:  2.44700950759 Dipole_moment: 9.722
 S          -1.37690619965989    1.27557324682057   -1.19975273029241
O          -1.14965376271488    2.36862070153044   -0.24438291429865
O          -1.56428029903823    1.67923801451170   -2.55300317752173
O          -0.03485624754047    0.40589150059283   -1.11281141413292
O          -2.37364881199349    0.32886057141319   -0.69487509380620
H          -1.76528532829584   -1.15548277297364   -1.05055331411182
H           0.71946477920037    0.99469488331245   -1.30826170740693
O          -1.35904064656541   -2.04396551400264   -1.18911716518117
H          -1.33493406829535   -2.15931924239748   -2.13998678417139
O           2.25826527715490   -0.07408829432648    0.99959810662416
H           2.96941265899718   -0.46276445459476    1.51119417165019
O          -1.93817827549558   -0.77630457478265    1.62019856815056
H          -2.28491596876616   -0.31426834509149    0.81577551011087
H          -1.71950980815354   -1.65642429886080    1.30381075337197
O           2.35922245967950    1.56121716395296   -1.23278886408108
H           2.83249540503861    1.10663542290070   -1.93213270657664
H           2.50870030908250    1.05982029137138   -0.41304471312285
O           1.07371907941214   -2.17172750139171   -0.07505215609995
H           0.91272189391141   -2.99762603321221    0.38379276749559
H           0.23700981493736   -1.96551284258910   -0.55523724247594
H           1.79912734665898   -0.82397689626228    0.54219557238631
N          -0.13227193420508    1.16569265535082    1.73299300858205
H          -0.55278130641833    1.75429247712396    0.89209956880514
H           0.81076030735305    0.83021264387616    1.48372507183889
H          -0.11162971935190    1.72780547745550    2.57679890597283
H          -0.78300698550492    0.34290575103153    1.83881798720533
