    26
        -50.46846770  Gyration_radius:  2.39932514452 Dipole_moment: 5.643
 S          -0.84785216258111   -1.52471777524495   -0.51877700951592
O          -0.21400845390314   -0.72437591321821   -1.59471543434818
O          -0.59040910535971   -2.93074057824731   -0.67439724613071
O          -0.40565213326376   -1.01854045712238    0.77563961848508
O          -2.38133404396118   -1.26797546229380   -0.62682696880593
H          -2.51674147095236   -0.32431323491267   -0.36969842241456
H           1.23165188652876   -2.58927297454265    1.59106714852720
O           1.63959525536571   -2.81555867464418    0.74970296720137
H           0.87219475291240   -3.04722959737514    0.17618391712751
O           1.49405685428286    1.88882542587045    0.64974823456154
H           2.02383651861526    2.48790042792617    1.17704780542501
O          -2.63589335761335    1.33068517196789   -0.10349889647291
H          -1.85633258774124    1.65511250134686   -0.63641478664572
H          -3.42227390730561    1.63631226984422   -0.55897069655174
O          -0.46904456926909    1.89975542484349   -1.44404820215691
H           0.25816050362385    2.09999178725342   -0.83876685993973
H          -0.37196965176692    0.94735249189418   -1.66377549902275
O          -0.66982185969437    1.28609389034070    1.95694550196573
H          -0.60995449301242    0.34931453244156    1.66061481951486
H           0.67377306946068    1.69417152461503    1.19523900507850
H          -1.48328730844428    1.60340239748079    1.54756804977753
N           2.09608901472465   -0.51658907564741   -0.48794244479134
H           1.20093222185545   -0.58447948479671   -1.07928887883805
H           2.92824857014832   -0.49622834595013   -1.06824588285293
H           2.00075715493956    0.35529243329817    0.07509912487777
H           2.05527930241151   -1.39418868512767    0.11051103594646
