    26
        -50.44637525  Gyration_radius:  2.50004180029 Dipole_moment: 6.921
 S          -0.33048853578256    1.40096787738321    1.95341210764914
O          -0.15610780398844   -0.03634598615477    1.85680751526801
O           0.24253230454541    2.02599670496397    3.08618844417596
O           0.25871654844668    2.00998848881810    0.63514796201999
O          -1.81633235228649    1.74802129181926    1.80662910907074
H          -2.30304029835007    0.94691091757766    1.41525040452723
H           1.21704875277786    1.68886518739321    0.66335206109559
O          -1.73875383300050   -0.91411526797017   -1.56801967752416
H          -2.13205411928433   -1.48905816810445   -2.22546287840183
O           2.25532999778919   -0.32633235479351   -1.57223002927911
H           2.95048149078945   -0.04786356373026   -2.17034654898765
O          -2.68617252816060   -0.46570798974836    0.92184354052905
H          -2.51299308716220   -0.54825085891943   -0.03914807486288
H          -1.90626332644630   -0.83522823018446    1.35865062181937
O           2.44606717064075    0.74918231156450    0.86388348520969
H           2.05694379915459    0.14811335854998    1.50651407639098
H           2.47996427121417    0.27323477622965   -0.00182054929720
O           0.07764038071645    1.09514701914213   -2.02860130114858
H          -0.66905379666321    0.47194192127695   -1.98084858499438
H           0.01675830701119    1.64264581913867   -1.23429935534096
H           1.44920134593267    0.20042938844551   -1.82285592126531
N           0.22998422301210   -2.03684277540065   -0.23465404420255
H           0.27152040502989   -3.00267472384003    0.06343988726104
H           0.20023894741557   -1.45037763276640    0.59738056072148
H           1.09125714822907   -1.81938927809364   -0.72530211222436
H          -0.99242541158030   -1.42925823258739   -1.12491071821451
