    26
        -50.46788075  Gyration_radius:  2.39855574721 Dipole_moment: 5.651
 S          -0.50348409640316    1.72403965541247    0.18287342681034
O          -0.47257234248023    0.95682609995640    1.45033064194663
O           0.04545193877309    3.04406153593632    0.33735703173763
O           0.17632312207521    0.95886952797747   -0.85652600961790
O          -2.00467080496202    1.84071624795032   -0.22440849514623
H          -2.30627771535627    0.92827450864095   -0.44996869645759
H           2.35695441695306    2.01987785091884   -1.15725605350207
O           2.50172462720268    2.23170873006078   -0.23039453526615
H           1.67600724879993    2.70128829019471    0.03314613687783
O          -2.72557788630846   -0.62676372946779   -0.93270074373616
H          -3.44475107665966   -0.55826763307314   -1.56281098939021
O          -1.29151673893997   -1.54814922533967    1.27614226633582
H          -2.01641600816354   -1.48827441723760    0.64089733798887
H          -1.06536982175131   -0.61254207054933    1.47385121593903
O           0.94101939898954   -2.29896381972191    0.14766100847279
H           0.06762988832182   -2.06834580909455    0.57981890509375
H           1.16057952581971   -3.18250970339559    0.44594490939306
O          -0.47507812240818   -1.24179095498026   -2.09678551803731
H           0.04491133033927   -1.85870972322052   -1.56495930610161
H          -1.92138848352507   -0.92545467599412   -1.45017593693833
H          -0.15812498514243   -0.35978143576864   -1.80063065840698
N           1.91747445855940    0.05206076026067    1.16278449759961
H           1.76149200314148   -0.83314695528397    0.63886472059507
H           0.93889117515707    0.40819808330559    1.43137290148612
H           2.50195993554471   -0.09483956843140    1.97925351306727
H           2.29480900243068    0.83161842096721    0.54631842926474
