    26
        -50.46788072  Gyration_radius:  2.39865902295 Dipole_moment: 5.646
 S          -1.43753997522380    1.01010126923778   -0.41662128308270
O          -0.69874693778496    1.46108302122023    0.78628986059271
O          -1.83090056904124    2.11194488311140   -1.25271566146754
O          -0.63062227722624    0.02950786533042   -1.13445828182342
O          -2.71559003616266    0.27994491739046    0.09968633316341
H          -2.40561390195533   -0.54019210043676    0.55305977149365
H           0.28489524183573    1.20041862883619   -3.07367852730954
O          -1.82369568805124   -1.97655042657233    1.20652736490012
H          -2.52216475774603   -2.63106681044161    1.15425572435924
O           0.42878797422690    2.04287077376492   -2.63274470690871
H          -0.44195507794733    2.23863354937545   -2.21399002652343
O           0.23790015786322   -0.46806644568759    2.32817930653671
H          -0.14795486743648    0.32051842936903    1.88687158026776
H          -0.46040572996866   -1.13333184816164    2.27949828185107
O           2.19078840337646   -0.97340340619394    0.66905312692503
H           1.46496550563650   -0.82085219928323    1.34185315865470
H           2.96946599238591   -1.22109187984610    1.16917003771091
O           0.05070069887740   -2.42058937680304   -0.55128420335716
H          -1.12257409854754   -2.25586850419343    0.54778980337405
H          -0.21582599377760   -1.56362782641069   -0.95189319561563
H           0.92861763660503   -2.23824101119061   -0.19110476403065
N           1.62063623735381    1.51666180753646   -0.32292844855648
H           2.30095111579349    2.21151686124566   -0.03287106486522
H           0.70713531140265    1.59338669466085    0.23954192466304
H           1.29962208775304    1.67696861329500   -1.32362442771819
H           1.96912353775861    0.54932453084737   -0.16386166322039
