    26
        -50.45869665  Gyration_radius:  2.39072656356 Dipole_moment: 8.397
 S           0.74289466187308   -1.91807313756068    0.10658140901015
O           1.93556733832643   -1.68477265015097    0.88901006951247
O           0.08791420968466   -3.17995371554754    0.26409526031157
O          -0.31065090145474   -0.80825975952018    0.61723478368683
O           0.92443352511141   -1.54726305885985   -1.31250523619076
H           0.95362987387568   -0.05768356640733   -1.57732730105948
H           0.05242891522367   -0.36941488766863    1.40896379713289
O           0.88184121911757    0.93730829704626   -1.75746392800131
H           1.28822439286514    1.06926667566374   -2.61560771870709
O           0.62369808651825    0.79968370393229    2.54307913649274
H           1.02041531991607    0.28757522619297    3.24964254990040
O          -1.58563015537188    1.93804176576692    1.32452077146589
H          -1.25128269971144    2.83486553013376    1.25720538667931
H          -0.94196532668969    1.45991778464847    1.87388749095218
O          -1.65384150574184   -1.88471144703294   -1.46280727562534
H          -0.68285281274950   -1.86402487194305   -1.61476104195971
H          -1.71748983348905   -2.49599084436327   -0.71916339388975
O           2.39635216509495    0.88978779613883    0.64926109333304
H           1.36338552472727    0.99063565511255    1.89704817908919
H           2.41828186193532   -0.09530713229622    0.68990057383283
H           1.97152081456003    1.10394967084628   -0.19324596391479
N          -1.72841828924784    0.73481623699361   -1.11113818539744
H          -1.77126612861426    1.08149541944454   -0.12426745746728
H          -1.81282390675364   -0.33269453881022   -1.13323337856526
H          -2.44217216829798    1.16728925568292   -1.68833711306642
H          -0.76219416072252    0.94351660256162   -1.46057250753990
