    26
        -50.44355159  Gyration_radius:  2.55314940679 Dipole_moment: 7.569
 S           0.72142030920473    2.48332741425366    0.15822291588457
O           1.10381122192403    1.66279555138329    1.28843788277689
O           1.75729126017613    3.21559270094220   -0.47344308995284
O           0.01568573460005    1.54740444553277   -0.87449335753131
O          -0.44595081280792    3.39261799136435    0.56158340855577
H          -1.04051741358581    2.79046028052169    1.11236106537541
H           0.66749802222760    0.91945638742331   -1.30157354567614
O          -0.08265773931796   -2.28273721667397    1.13284830908747
H           0.02569810255667   -2.63347301058010    2.01814255492141
O           1.54307245238469   -0.20991245193805   -2.00047918441728
H           1.73258952988601    0.04813326815220   -2.90405945854722
O          -2.18265659290339   -0.70281636653271    0.57317353812884
H          -2.95108566069257   -1.09107101019032    0.99486032526494
H          -1.41656841024725   -1.27826250765323    0.79890787870389
O          -1.49004729535900    1.52903927621251    1.94926282775403
H          -1.81642496681650    0.81224005339584    1.36396231707896
H          -0.55336168616790    1.33168575645433    2.10459680195357
O           2.03833994111992   -0.78499302676564    0.71139337566833
H           2.18545994759895   -0.68308063469611   -0.23656670033473
H           1.80297725316783    0.10530238602533    1.03493128319021
H           0.73475843842812   -1.74176612744289    0.96189755507879
N          -0.55550167403746   -1.76414969277696   -1.82754846944411
H          -1.23438536581908   -1.09442443225458   -1.47839712071613
H           0.78176109913106   -0.87930095226690   -2.02336223623990
H          -0.35882318564759   -2.40320867881782   -1.06454426210150
H          -0.98238249899104   -2.28885939308491   -2.58011463444423
