    26
        -50.45220425  Gyration_radius:  2.46102948968 Dipole_moment: 9.113
 S          -1.13060382016073   -0.82886191265224   -1.71920111447693
O          -0.33976589678701    0.27490570090690   -2.29221216650042
O          -1.83882665881005   -1.61532170292094   -2.66672546038222
O          -0.03266177215411   -1.74628735814806   -0.99546941628570
O          -1.94716504759000   -0.33010081856907   -0.60495866432211
H          -2.03648451167781    1.13978925285194    0.00833774695794
H           0.83118815277195   -1.41914734593927   -1.31873551393594
O           2.08040321490028    0.23647351933332    1.19992691207188
H           2.58221295235222    0.44491763355159    1.98840596942114
O          -1.95971790050507    2.05281863098325    0.40041690417461
H          -2.62467378316747    2.57986890979727   -0.04436440067869
O           2.47814664194092   -0.90308635139270   -1.27525969172415
H           3.02729197895484   -1.68873451293020   -1.25124395177628
H           2.52194669178968   -0.49770684168377   -0.39133383019380
O          -1.93285893438188   -0.60211449290052    2.05508230933450
H          -2.07050397600590   -0.67985908288991    1.08985270937897
H          -2.06639610284126    0.32797721813006    2.25233711307780
O           0.47662338101583   -1.69475170332198    1.71542299987323
H          -0.37949091207476   -1.34821662220099    2.05029732550844
H           0.26901675249286   -1.99994086655954    0.81726300631284
H           1.45571740120839   -0.52031044531579    1.45626274004089
N           0.54992555420134    1.78537472127302   -0.47783734831140
H          -0.33762106398520    2.09135528870851   -0.01928916467890
H           1.14388022688974    1.26163190334475    0.19007941297661
H           0.22010522630707    1.10886092724857   -1.30063177771160
H           1.06031221550607    2.57046635140030   -0.86642263825201
