    26
        -50.45300960  Gyration_radius:  2.43471088233 Dipole_moment: 5.198
 S          -0.89191418357036    1.83654419715400   -0.46896922575703
O          -1.43341466201771    1.33796369447131    0.78635769181449
O          -1.58168859875646    2.92659110218571   -1.04876531538105
O           0.58278877850179    2.19985241152128   -0.23232951789543
O          -0.84585984797874    0.64935162380272   -1.45764361521132
H          -0.77529452188355   -0.23912674778224   -0.95039593089657
H           1.23738080036039    1.40801323571825   -0.40948209028953
O          -0.70575860349770   -1.54462624212428   -0.18570628398302
H          -1.54793418117802   -1.51245367734450    0.31822069380892
O           2.13346088147643    0.26637558998440   -0.59310651229693
H           2.01590846418628   -0.30528405992502    0.18354420632696
O          -2.88304347278727   -0.87135855490758    1.20091464909353
H          -2.45555242031934    0.00727437357661    1.20374600736154
H          -3.76147609351308   -0.74231710178119    0.84047715790785
O           0.55995710917220    1.29477907163436    2.51646935219500
H          -0.27461756139308    1.36513695968480    2.00686213259463
H           1.13281412568072    1.97714196725476    2.15657605348037
O           1.25704688800368   -1.07244002127137    1.63578807472405
H           1.00220755146503   -0.20880041522013    2.06053289756605
H           1.49887109293458   -1.66560948401634    2.34804275400451
H           0.00061394454213   -1.45978425651464    0.48587505227903
N           1.14060018484948   -1.21727776967709   -2.58380097853366
H           1.82942283523610   -0.26736863672684   -1.37874175725947
H           1.68613354383014   -1.69749822274861   -3.28753524076962
H           0.56412152573941   -1.89675125677046   -2.10084572755864
H           0.51522642082790   -0.56832778021049   -3.04608450724038
