    26
        -50.44651596  Gyration_radius:  2.56316987429 Dipole_moment: 5.423
 S          -0.40571077901034   -2.17003583344741    1.14107782077671
O           0.62611943740330   -2.51440824470185    0.04157757586087
O          -0.25674661864887   -3.08717888068084    2.20891894283282
O           0.02814295131728   -0.73242196763213    1.57868494971645
O          -1.71286252262921   -2.02319712908255    0.55826842467306
H          -2.04346939089480   -0.91348484875277   -0.55406063927588
H           1.03356086127857   -0.74922819019771    1.61655525742345
O           2.06059335206470    1.01535886750271   -0.68515420243127
H           2.58621332598975    1.68236789607497   -1.12763163701914
O          -2.14449036032890   -0.30712188642262   -1.33254675666930
H          -2.76190896012850   -0.74289434044791   -1.92317415400826
O           2.56263906795930   -0.82472170865737    1.23181744411645
H           2.57103854342474   -0.15358075592147    0.51717410461574
H           2.60229993546591   -1.68593569242817    0.80363345417448
O          -2.30503791823916    2.36242811671649   -0.63950897066330
H          -2.25900514611739    1.44033166265343   -0.94659361728026
H          -3.15123847181254    2.45706959524904   -0.19980240038765
O           0.46139987567684   -0.83183388773600   -1.82571528274086
H          -0.45440563511219   -0.49290583254225   -1.77201294713082
H           1.05286069357913   -0.11448470845140   -1.51587448126443
H           0.53843461714895   -1.87966200172708   -0.76884142082347
N           0.21820083692693    2.12775641193971    0.77079466519414
H          -0.06514235968291    1.33284198783894    1.33533072878441
H           0.45529543298847    2.88793998992570    1.39485512552870
H           1.35738657712374    1.50829071060939   -0.12976076044377
H          -0.59416732574222    2.40871067031788    0.22198877644473
