    26
        -50.45989263  Gyration_radius:  2.45056173329 Dipole_moment: 8.203
 S          -2.07141059503315    0.10038569728167   -1.23914364678078
O          -0.87667359818389    0.72239727819760   -1.86389371232966
O          -2.86003281952128   -0.64823809653133   -2.15209235531276
O          -1.62989261606551   -0.66914743399820   -0.06767308670161
O          -2.92106393223719    1.29735342732333   -0.67657952215896
H          -2.32269569299449    1.79615611663566   -0.11813727589954
H          -0.55389132590726   -1.80911037499301   -0.03068627070629
O           0.21917366518569   -2.44198529319710   -0.06612376890975
H          -0.15896135204091   -3.30539568728117   -0.23739516949195
O           2.29524273214061    0.94109216911675    0.49271833729553
H           3.16555465743400    1.18059065622236    0.81190888833688
O          -1.06463225709245    0.48006788551817    2.27455110856551
H          -1.45393602357812   -0.03177659727817    1.54074213603157
H          -0.82571358195038    1.32625198956239    1.86594797054589
O          -0.27584502723890    2.19434765837466    0.24258503084738
H           0.66643829827891    2.05026109763895    0.40474985939532
H          -0.44763772454653    1.76709035056266   -0.61893480272249
O           1.24063887229539   -0.80871822598435    2.05864574597493
H           0.39805834773304   -0.36131118328292    2.32546614897131
H           0.96556892728307   -1.55343428105648    1.50754414311967
H           1.91738225810449    0.28738794077675    1.16581603742064
N           1.34774573315382   -0.51440566016740   -1.54266607782303
H           0.41492909389369   -0.00631773691417   -1.76118600280210
H           1.88319766975405   -0.66929368456913   -2.38934086365341
H           1.86505520429613    0.08410767928222   -0.85402746489962
H           1.08340108678748   -1.40835569117787   -1.07279538629573
