    26
        -50.45660603  Gyration_radius:  2.60071890526 Dipole_moment: 7.129
 S          -2.01892227615407   -1.38683396276350   -1.23542537058502
O          -2.22875840286775   -0.67185911903119    0.02572868765836
O          -2.99212825997467   -2.38913807852694   -1.52139161447075
O          -2.20129644954180   -0.25432589337661   -2.37738647641595
O          -0.62222722402575   -1.77672525879975   -1.36772026155820
H           0.06601036253226   -0.48209251491097   -1.83279137833439
H          -3.12888714366305   -0.34466496182710   -2.56508822655801
O           0.64689714659923    0.32163674843550   -1.98920628001660
H           0.53481131188266    0.53870869764594   -2.91523606320625
O           0.13800599819467    1.46130612396501    2.24473742937552
H          -0.37192128024239    2.00939385991795    2.84140996515099
O          -0.24259980443678   -1.22062108077743    1.64552077693820
H          -0.19833993225248   -0.37348534261263    2.12188661147419
H          -1.03359128028540   -1.14798288396776    1.06010967565119
O           2.72778395330224    1.24899460903211    1.57383256261475
H           1.84021832691183    1.37137877429216    1.97414694295856
H           2.91006202613356    2.04933844139830    1.07824133912154
O          -0.91984640379087    1.60676371347018   -0.11851323467717
H          -0.30927531632960    1.37133104952127   -0.83710448141263
H          -1.53794054966905    0.84269260659166   -0.07043698041571
H          -0.26882503748608    1.58404114250368    1.33490114164564
N           1.86874848113828   -0.88011430266495    0.17508638139722
H           2.37383211086034   -0.13526058104612    0.71056828171130
H           2.42970465331853   -1.71445775584637    0.04599139547049
H           0.96550596273774   -1.12700532102895    0.73629894701571
H           1.57297900709221   -0.50101870959720   -0.73815977052552
