    26
        -50.47460297  Gyration_radius:  2.41927896477 Dipole_moment: 1.187
 S          -0.25972827660726   -1.92296619447944    0.44334760148858
O          -1.44079306828317   -1.41409554845537   -0.25164982296314
O           0.95614868131246   -1.72229630134305   -0.30660557210545
O          -0.18791911433835   -1.42413514661861    1.80739220378428
O          -0.46153845805802   -3.48816745174649    0.56184472349142
H          -1.15439749352751   -3.54602908580972    1.21080569373868
H           1.25624785116191   -0.63165186106784    1.89108734003236
O           2.12476122054459   -0.21812975272391    1.68343401906617
H           2.51996123366596   -0.84103815930590    1.06444341630647
O          -1.31085535257916    0.44266466005790   -2.09265461468133
H          -1.35593632238555   -0.28969867226710   -1.42982540576683
O          -1.02913188434692    2.29094946793106   -0.04838905138127
H          -1.50081709910943    1.76393719280495    0.63719596363257
H          -1.23397293440902    1.83708391198370   -0.88371506387968
O           1.41987574541713    0.17791160628103   -2.11493976261787
H           1.36247870642807   -0.63797764726894   -1.57653265591117
H           0.50474902637384    0.34008970900633   -2.39836065565508
O          -2.14057428587744    0.45243851311617    1.52892481676418
H          -2.04658987953174    0.30322559690251   -2.69046859139939
H          -2.08882190582861   -0.23846452567482    0.84228318776905
H          -1.54034749230329    0.12974662403044    2.20976856795739
N           1.53782407558176    1.75091738187588   -0.00743208893547
H           1.61222604122971    1.21219617316628   -0.92475000409164
H           0.51678329745461    2.05591009704145    0.07561396325089
H           1.78054966082851    1.06653638399565    0.76153576717458
H           2.15981802721997    2.55104304859315    0.00764602494118
