    26
        -50.45976322  Gyration_radius:  2.40244388402 Dipole_moment: 8.653
 S          -0.07303726277529    1.82948848108125   -0.95606338884274
O           0.94199598800207    1.47072412750516    0.03480763746083
O           0.46468996719397    2.18988390013045   -2.23006492447550
O          -1.07600673968805    0.75169802338637   -1.04505117091951
O          -0.84586111943488    3.07576243743814   -0.38335043114635
H          -1.19415392800732    2.78835557178896    0.46537390105019
H          -0.33746479803394   -0.72569695188200   -1.60413725929809
O           0.13857407674005   -1.57852645695342   -1.61074897679392
H           0.90362934972022   -1.38095532969866   -2.17710191186589
O          -0.06335489067345   -1.34562162487254    2.56584292402659
H           0.14345918987176   -2.15461275579330    3.03525447738697
O          -0.98399308113204    1.30413097962625    1.78482622950253
H          -0.75306064786464    0.86893319508509    2.61018069265512
H          -0.15613382685292    1.33731454913907    1.26326031149810
O           2.08444927325061    0.05792784461778   -2.53492365753286
H           2.77935419875314    0.26513684773704   -1.90685499220792
H           1.53382407626873    0.86118938396717   -2.58757817073082
O           1.60661719503724   -1.02898756191075    0.62587694522493
H           1.55230311588120   -0.06819828597579    0.45029472647326
H           0.68779500032566   -1.20360202878026    1.90927013023673
H           1.18643238642733   -1.42950795322697   -0.16180168069913
N          -1.73036496098899   -1.19716443944504    0.50472682215260
H          -1.38925609793993   -1.91418840934524   -0.14032458700810
H          -1.18080776584987   -1.23894405046303    1.41059894490560
H          -1.51043481330275   -0.25761224508607    0.01426476023953
H          -2.72919389496007   -1.27692725803420    0.66342263870785
