    26
        -50.45694980  Gyration_radius:  2.4820718635 Dipole_moment: 7.903
 S          -1.75236660092209    0.31846109548188    1.48634473873570
O          -2.01593905118160   -0.97752546468788    0.84180901821476
O          -2.77904590515136    0.79924128803125    2.34054524535607
O          -0.45836349659846    0.09256426768744    2.37174124123495
O          -1.33686626009350    1.29013669001166    0.45120390446499
H          -0.74627458705505    1.25412354634896   -0.97299300756129
H           0.14558096333418   -0.43459416447093    1.81556517946700
O          -0.34946198946568    1.16347821447915   -1.89114577720240
H          -0.62848460798588    1.94570096167766   -2.36903939124862
O           1.47449018279567   -1.08449031408446    0.91977719574985
H           2.16234258330692   -1.22116001232871    1.57331915043340
O           1.15123732340661   -2.64036051168848   -1.24406964608347
H           1.86896389800146   -2.33556819201513   -1.80274104999044
H           1.29046279473557   -2.22438203282379   -0.36666735539119
O           0.71343733335376    2.58654342237251    1.47557290313220
H           0.73676523288873    2.30789412789281    2.39345874677789
H          -0.13826603718420    2.23916152677775    1.12965216183233
O           1.98266338226326    1.09592665103937   -0.34334717845448
H           1.68358590531774    1.75597925171828    0.32447103476089
H           1.72109539752100   -0.24058875142811    0.41747499943133
H           1.32136642350086    1.14970506029912   -1.05198077622589
N          -1.21443384697463   -1.37868418675363   -1.52986388685304
H          -0.36515297482070   -1.98728494385484   -1.48888896208583
H          -1.94875538391174   -1.80959754323367   -2.07971644319810
H          -1.57298709903098   -1.21401724052021   -0.49433565132729
H          -0.94559360004170   -0.45066273592488   -1.90614639398571
