    26
        -50.45450814  Gyration_radius:  2.46053961471 Dipole_moment: 8.298
 S           1.06892983737048    0.64366910321296   -1.86561388911032
O           1.95673379932744    1.16250735281398   -0.81675555911400
O           1.59789549471655    0.66497960146870   -3.18478140841299
O           0.83682798940723   -0.89215825769748   -1.43442992459557
O          -0.27056305019754    1.22895439214010   -1.73253292673278
H          -1.68963223653368    0.52600538668252   -1.36323689514432
H           1.56501343017074   -1.08686295267556   -0.81133818321281
O          -2.55585118350792    0.18198409811289   -1.02629644793270
H          -3.10674943670836    0.06613592241159   -1.80147434362183
O           0.01561850484590   -1.32054925884111    2.06005435752075
H          -0.41148557740732   -1.69564300004511    2.83071757426210
O          -1.40895555112356    2.51694240056078    0.27943813769060
H          -0.96693416998022    2.31279401051475   -0.57340417611800
H          -2.21570783112774    1.99036651316150    0.25386889105926
O           2.33537139974846   -1.71745614164031    0.60799387698223
H           2.53596584932806   -2.64677141890458    0.48354687502380
H           1.60941320838339   -1.66490923147961    1.25337593086936
O          -1.27414421717282   -1.97574986072931   -0.07721938518277
H          -0.55396917962838   -1.83172796055372   -0.71444620916152
H          -0.53750255243348   -1.60080377662134    1.26504235313597
H          -1.92175548036430   -1.27591222463595   -0.30247380886029
N           0.67424173869022    1.27894095362990    1.36513010561586
H          -0.19968306506648    1.80823641827121    1.10031535913238
H           1.20479907022620    1.78362186705504    2.06674000366209
H           0.43933163351016    0.33013571272509    1.70057638189147
H           1.27279157551490    1.21327034105317    0.43720329035846
