    26
        -50.44342482  Gyration_radius:  2.53293679823 Dipole_moment: 5.429
 S          -1.62974979454185    0.59656479946116   -1.70160558604189
O          -2.06349578212885    1.46886463071571   -0.64290631938133
O          -2.09585009795055    0.86247661368597   -3.00975136823611
O          -0.07168961315526    0.58139013985552   -1.67637769464589
O          -1.99813554842490   -0.86896279217860   -1.32125130260749
H          -1.26380280932226   -1.30699538848571   -0.79818807748153
H           0.18577276945668    0.91256210930374   -0.75730686674603
O          -0.16485117855061   -2.01827486387971    0.09179330467845
H          -0.42160633547632   -2.91925953509392    0.29589045279885
O           0.61051896612661    1.45882900214174    0.63334356593101
H           0.43564596591237    2.40125593344730    0.63179041164638
O          -3.05878938946205    0.01729511017330    1.34591432168430
H          -2.77349207222740    0.67323597134701    0.67717554582936
H          -3.56695392502177   -0.63769282921548    0.86392405632371
O           2.14540468393576   -1.15704133411118   -1.26841368410493
H           1.65316964268408   -0.59876501167281   -1.87901022406966
H           1.46275011607078   -1.60478518777380   -0.74696032931398
O          -0.56321685448542   -0.53555928934782    2.13667340257015
H          -0.25871723488494   -1.48789441416277    0.95313763966038
H          -0.13206497256260    0.27504721367627    1.82285672385039
H          -1.52577969795648   -0.36297361823736    2.04146295877530
N           3.13429606216965    0.86229335361348    0.47725002282428
H           3.56251955333750    0.51340004171494    1.32500004415037
H           3.78327482912506    1.50111981031930    0.03632828081470
H           2.99406642540686    0.06706752860921   -0.15480513023182
H           1.62077629190170    1.30680197610585    0.62403586128235
