    26
        -50.45932479  Gyration_radius:  2.43892093444 Dipole_moment: 7.815
 S           0.84997210588505   -0.08897245151214    0.31425038835482
O          -0.26600498832582    0.46757770614637   -0.46123544219414
O           1.94551998853633    0.87245604354696    0.39709290105354
O           0.38181740924062   -0.45169986131868    1.65890900475892
O           1.37903704532622   -1.32705301543002   -0.39906264680530
O          -1.59343513279059   -2.18551869148137    1.31804687433780
H          -0.91452277969034   -1.49653112110611    1.48368103580865
H          -1.48620885861120   -2.83822208364289    2.01237575822061
O          -1.07604470613358    2.70346954298933    0.65930475412792
H          -0.90073323398463    1.84140791668489    0.20977293851361
H          -1.04138184058910    3.36826090018621   -0.03125379837391
O           1.19986248817598    0.35408226314062   -2.78542677461748
H           1.96627745011625   -0.17760661853204   -2.56120784730056
H           0.77965889995024    0.56589811630723   -1.93974176359672
O          -1.37843639073434   -0.83542055382951   -2.61836307517211
H          -1.30464604799044   -0.26453822048413   -1.83758437120636
H          -0.62307601991547   -0.57917857056526   -3.16611461488566
O          -0.52241336527282   -2.78758169389432   -1.05274916291435
H          -1.08292442287230   -2.69625193220410   -0.24996294414011
H          -0.94441776189436   -2.21903410672955   -1.74595573773051
H           0.60215355296462   -2.00397021555643   -0.68580111478944
N           0.81321445078111    2.00119811269468    2.34912810018906
H           0.47162952406897    1.02928967451765    2.53189689219160
H           1.18686472195352    2.47746924620616    3.16279513610491
H           1.52628897814294    1.75736029204137    1.57627728071203
H           0.03194893366095    2.51310934181908    1.86092825936027
