    26
        -50.45777589  Gyration_radius:  2.47494017597 Dipole_moment: 6.821
 S          -1.99375442707507   -0.35026424543361    0.88764213193241
O          -1.78526851305851    1.10813077703254    0.87579036709841
O          -3.27380755063612   -0.77966923514135    1.32592087273505
O          -1.59522291281262   -0.89654885999909   -0.42587356169864
O          -0.92554340186545   -0.91631056130961    1.91077508156321
H          -0.08665172140087   -0.46271016180132    1.69891278711997
H          -0.64758442108366   -0.52825548220256   -1.60232175669473
O           1.51062971693424    0.05870402911119    1.34328625518459
H           2.08617338351265   -0.27252348978064    2.03506777707452
O          -0.01649638284267   -0.22133137390857   -2.31699375984101
H          -0.34698778780954   -0.59688761700176   -3.13413232701955
O           1.63316724682901    2.65589967380973    0.66155001723477
H           1.69371833760584    1.71275121696177    0.92783283717625
H           1.29650357804433    3.12490818145380    1.42756289377310
O          -0.24772278447401   -3.09204508660554    0.13104105126143
H          -0.87282272725740   -2.37621171847507   -0.11614760687612
H          -0.38025699693597   -3.22110663791732    1.07260804624931
O           1.78995153944657   -1.53553674368411   -0.64408139846728
H           1.36442763796655   -1.09040183579876   -1.39354552232730
H           1.67700287495966   -0.53978990771246    0.54069917960631
H           1.16459966771883   -2.25186369509901   -0.38658350032603
N          -0.40348619376885    2.11475233239599   -0.99423761369797
H          -1.05128397239530    1.67083285055997   -0.21302083439302
H          -0.16107176676652    1.36027221396099   -1.66325200757315
H          -0.88155136444050    2.87879438707912   -1.45770459333439
H           0.45333891159822    2.44641097951409   -0.49079482576147
