    26
        -50.46213341  Gyration_radius:  2.57803201934 Dipole_moment: 3.895
 S          -1.65108094091260   -0.93091222678408   -1.40503939939492
O          -1.58926585813847    0.03636685981542   -2.47796823927698
O          -0.36753939243084   -1.56173221932420   -1.11231812657247
O          -2.25486504644911   -0.40568505925670   -0.19300105484213
O          -2.59686120348845   -2.08840315317122   -1.94016524574566
H          -2.96024619600587   -1.65718346152213   -2.70550939629799
H          -1.79153933693904    0.85691811646742    0.60925622072366
O           1.59277297474821    0.21978131995546   -0.89742670635516
H           1.01809892902614   -0.53038273667661   -1.15511005766263
O          -1.44215909719687    1.64112740113611    1.11988585191463
H          -2.18331627639323    1.96461641752074    1.63368489623514
O           3.48820618299437    0.68648854290693    1.20150247415076
H           4.37957389936464    1.01295381134510    1.07586686872014
H           3.13093369126119    0.51955682182769    0.31764794993583
O          -0.15270303559109   -2.28700143025204    1.39705599540345
H           0.39817437194678   -3.07077147608060    1.35578255572847
H          -0.37506923879430   -2.06727676105648    0.46019509192403
O          -0.20353455938528    2.05802074163399   -1.43763310610810
H           1.09893679151779    1.01719652516917   -1.21476012990082
H          -0.76005026799023    1.42839900544133   -1.94048032004979
H          -0.66156603210223    2.20550348871854   -0.60024009867496
N           0.77746485792668    0.19856793370298    1.62000358270028
H           0.44172379422542   -0.78465711734307    1.76134601232141
H           1.14919328997544    0.23644366389795    0.61862142293125
H          -0.02929612348318    0.85149862603665    1.66923650588698
H           1.54401385232604    0.45056636596237    2.23956644229931
