    26
        -50.45932477  Gyration_radius:  2.43884918677 Dipole_moment: 7.814
 S           0.85050567115750    0.23039443967258   -0.22901573414084
O           0.81671884928489    0.29983591453432   -1.75070258702705
O          -0.25517618443770   -0.61781762759604    0.23417711517190
O           2.13475863368006   -0.34726062591853    0.15618132285637
O           0.70447458357245    1.57967790195854    0.33379173235037
O          -2.22883972198324   -1.54476851947315   -1.44907728713710
H          -1.61900316581791   -2.20698291729616   -1.80378715367007
H          -1.79258621778718   -1.23581529572956   -0.63962639084355
O          -0.10767165074753   -0.89432760702673    2.84418618261202
H          -0.29605252043330   -0.78947707593440    1.88006683480086
H          -0.09864521506038   -1.83976003093862    3.00572967580528
O           0.41404263974946   -2.59041279075039   -1.56175914565734
H           0.31952416349532   -1.97946943572265   -0.81717376626757
H           1.04825195949239   -2.17598714269528   -2.15032699011363
O          -1.66554401711764    2.46405487943177   -0.45704667419273
H          -0.81320279027753    2.14707205197046   -0.08824053614510
H          -1.53921353887172    3.39255658127782   -0.66099423046036
O          -1.50280970712070    0.76582883067919   -2.51141737133979
H          -1.77001989537077    1.42253183624371   -1.83008241380677
H          -0.15730322650018    0.51957374635283   -2.13406733251959
H          -1.94075575994150   -0.08557559634038   -2.25619212806461
N           1.93311530626725    0.71407425676478    2.43642226843951
H           2.63167976072233    1.07564204694254    3.07656522551539
H           1.20608681217773    0.09573118795389    2.88347843546566
H           1.41771603961812    1.44623117991801    1.89517713396066
H           2.30994921225677    0.15444981172624    1.59373382440747
