    26
        -50.45956039  Gyration_radius:  2.46663357274 Dipole_moment: 7.072
 S          -2.32113391926716   -0.05628906991124    0.11134822014964
O          -1.83103056920849   -1.41988728308211    0.03366988988664
O          -3.73542257289709    0.10928619433474    0.20134703026816
O          -1.75434685177706    0.52606628601586    1.51674631970066
O          -1.66031101044848    0.77948033147108   -0.89882717932399
H          -0.98573783086886   -0.26848036458751   -1.95293564995917
H          -2.59358058379963    0.76092025217735    1.89620539212730
O          -0.57684976333837   -1.06205306091897   -2.37516390985765
H          -1.08205878010096   -1.78559605945350   -1.98579720739346
O           2.16524899040337    1.29991811329564    0.07622603720557
H           2.88492639064702    1.91146469137535    0.23531944572701
O           0.44760454114313   -2.19503078810651    1.10734694350236
H           0.63543936355042   -1.48651529644277    1.76298473407991
H          -0.47069033231764   -2.02117189727134    0.79547421388041
O           0.89947731712707    0.13942332513153    2.32537461670016
H           1.41888671902499    0.59400535816613    1.64460390938208
H          -0.01340647021695    0.43300915287700    2.20159360118625
O          -0.01026408655219    2.68866800187402   -0.33609409382115
H          -0.68686754597216    1.97788438133589   -0.47120381432404
H          -0.10001080563438    3.26988111381204   -1.09321172923145
H           1.35618061401317    1.85328584926824   -0.09602466105961
N           1.63421089744436   -1.20825017884476   -0.95646934046404
H           0.81442230523483   -1.12343172168005   -1.63525822074282
H           2.39606843810604   -1.73824341918202   -1.36350851377760
H           1.94948170371898   -0.26866304051216   -0.66910569692182
H           1.21976386200219   -1.70968085115148   -0.07464033693804
