    26
        -50.45674460  Gyration_radius:  2.41572892241 Dipole_moment: 7.382
 S           0.65294318709480   -0.07435010280443   -1.94747937474416
O          -0.66179769932319   -0.00466544763563   -2.60912994746373
O           1.77629934081644    0.18029305663320   -2.77762774392584
O           0.60695173573217    0.76662617379347   -0.73482853524683
O           0.79104174957635   -1.55774253655111   -1.42562511831112
H           0.14653681457501   -1.70583193207680   -0.70123258566230
H          -0.50575643853777    1.73774409712524   -0.20702090071028
O          -0.87777872578760   -1.92572854507060    0.62529369025069
H          -0.96605047118280   -2.85757391394054    0.83092433714602
O          -1.28117878926302    2.23790843284322    0.17552973924173
H          -1.29615224813841    3.08624376597374   -0.26973029893204
O           0.58645775467428    1.61051881513197    2.25782164734284
H           1.33227951766964    1.71738121209328    1.66011894143372
H          -0.19487712220207    1.87944968034856    1.75609212680270
O           2.79205753597558   -0.33466012062815    0.26466897446039
H           2.07068098949128    0.16158843502398   -0.16592393484690
H           3.19459337367423   -0.84746965019712   -0.43833273847574
O           0.96569924544958   -1.06846432644371    2.14569216250512
H          -0.17560564068044   -1.56567770997257    1.28047219130573
H           1.74207146603683   -0.97586369212035    1.55682721743165
H           0.75605020517180   -0.14732896314807    2.40202203324232
N          -2.33159758499810   -0.06858175729207   -0.72154210596086
H          -3.29491529172259   -0.24895219389455   -0.98080399588916
H          -1.65445682046417   -0.05195171920413   -1.61461695930425
H          -2.21359060562810    0.86000995514879   -0.26883761202005
H          -1.95990546800986   -0.80292100307922   -0.09273120968640
