    26
        -50.45989264  Gyration_radius:  2.45063386091 Dipole_moment: 8.213
 S          -0.99869995708207    0.20727541984303   -2.19069477887529
O           0.48446806974281    0.20333304722939   -2.11941980084791
O          -1.51433343031772   -0.57316522578122   -3.25882069982146
O          -1.52337728438656   -0.17304632177847   -0.87172685208812
O          -1.40418201034273    1.71142465460319   -2.40172396131388
H          -0.98201409455437    2.19296823055677   -1.68852209207681
H          -1.19103221572242   -1.46843465620615   -0.05308809324940
O          -0.84465335663829   -2.25655377040356    0.45514504535852
H          -1.43025281625713   -2.98333397613380    0.23910780053467
O           1.96167298644663    0.38647082023663    1.54867138451328
H           2.59475451108412    0.47518996217506    2.26140026089380
O          -1.66896489971217    1.54784803146878    1.16368664043219
H          -0.93288592681038    2.08661727037868    0.83513507553333
H          -1.85313124188042    0.93179511711495    0.42974795898681
O           0.61378619132977    2.11573242826881   -0.30533991415787
H           1.21017808366052    1.78835296693428    0.38176575774282
H           0.69421999657472    1.46864201325543   -1.03272365401651
O          -0.32841453219763   -0.30961415416620    2.49612077847396
H          -0.91485543214203    0.41677985063018    2.16500418574483
H          -0.60779984192101   -1.09791310233377    2.01184219105592
H           1.07822364127574    0.15409747074828    1.98306317610762
N           1.53759399243155   -1.38988209240077   -0.40673268735815
H           1.12983601550348   -0.76164257655917   -1.19114805536650
H           1.87937405999617   -0.74821651607299    0.34930366300405
H           0.73313045811222   -1.94166081371100   -0.03495919714319
H           2.27735902381480   -1.98306404791062   -0.76509412207011
