    26
        -50.44654991  Gyration_radius:  2.48617083401 Dipole_moment: 5.492
 S          -0.52076495136889    0.39297427268801   -2.11515731621783
O          -1.52707407600270    0.45153594353924   -1.07707648323403
O          -0.94859065590469    0.62533857749447   -3.44147483332339
O           0.60807867915325    1.39026480505490   -1.76771935577494
O           0.18259668804127   -0.98778276462981   -2.01765144743817
H          -0.03446327090193   -1.48252104517122   -1.16404975641425
H           0.91922356104845    1.24116698863438   -0.83029169231586
O          -0.30352065070531   -2.37075514965650    0.09426906967227
H          -0.82402628854071   -3.12970635595627   -0.17571619078246
O           1.61737229610239    0.90787822121702    0.56665484272158
H           2.35489631089556    1.51055897069221    0.67943096675004
O          -0.54094122507285    1.14671216480737    2.35867718304146
H           0.29357678123406    1.02514906507578    1.88487052437827
H          -0.99403947096704    1.85448229804214    1.86718778861646
O          -1.68774637433557    2.69596339577597    0.40846046497217
H          -2.57666803371702    3.04563391151471    0.33335366604074
H          -1.63960355324548    1.93365257674873   -0.19792407731213
O          -1.95775719443559   -0.83457063514842    1.28819008037885
H          -0.92776287213548   -1.80094976291838    0.66041050591842
H          -1.48038968282563   -0.18745554366409    1.86239103950683
H          -2.12826617588122   -0.34564950569534    0.46849878638468
N           2.50439590588263   -1.50840553533110    0.05373868235547
H           3.30753247971722   -1.93297577734870    0.49954481230749
H           2.62303265139694   -1.56977623874811   -0.95034310441582
H           1.68062491482698   -2.05481621290558    0.28956409214946
H           2.00028420771769   -0.01594663410801    0.42216174203257
