    26
        -50.44210643  Gyration_radius:  2.51149979752 Dipole_moment: 5.835
 S           0.05696004609005   -1.61897049926911    1.87937703184370
O           0.13442211480575   -0.22875762523207    2.23700124370788
O          -0.26661068682627   -2.55316560036370    2.89289136744100
O          -0.95146936507541   -1.75204102940156    0.68636672180865
O           1.38488406841125   -2.03702638551611    1.20423681814058
H           1.72415806674678   -1.24970325358067    0.68109599635644
H          -1.47110908953447   -0.89979937530973    0.59362162048079
O          -1.07392472709671    0.84022460951589   -2.13326405533583
H          -1.25269868653685    1.07955098097298   -3.04292514139870
O           2.31238867787967   -0.05684964823281   -0.15430184141153
H           3.09421079577511    0.25153186644579    0.30688689056905
O          -0.40396938805106    2.36931972044365    1.84988845271198
H          -0.36860872651987    1.40933186102782    2.01843815641194
H           0.04844554631480    2.78057733657304    2.58792788174198
O          -2.30327837606243    0.38387999539333    0.23300073269390
H          -1.91789186116675    0.68798397440657   -0.61228205153304
H          -3.23371833486973    0.21330364258690    0.07646996298226
O           0.84060543313353    2.04270383300922   -0.50505096006031
H           0.38144538409988    2.26026181082174    0.33522679412406
H           1.72807158058694    0.75746493480769   -0.27074895609241
H           0.14047169244796    1.77093349501191   -1.11884553393791
N           0.33373810919894   -1.39524566508063   -1.98802828907792
H           0.44715664358750   -2.07891593341674   -2.72568386148920
H          -0.09336097625610   -1.86030620237445   -1.19189164628327
H           1.25806057234714   -1.09947695930784   -1.69123515779991
H          -0.54837852341223   -0.01680986394510   -2.14817215660273
