    26
        -50.46372050  Gyration_radius:  2.56003598836 Dipole_moment: 7.072
 S          -0.06715219299149    1.36231121177510    0.89883193375386
O           1.23054871331444    0.87220008606680    0.38972250766014
O          -0.10486762228907    2.79405100768192    1.02295204900031
O          -1.12314627108467    0.93384404587603   -0.19696071093945
O          -0.46006850570501    0.62599141943025    2.08528424386817
H          -0.72325349344344   -0.89133089682372    2.13817927896363
H          -0.92554438854132    1.52215529493804   -0.98274965572702
O          -0.77810720044959   -1.89534529580275    2.12846334313094
H          -0.99616546603945   -2.14991253769882    3.02602117354117
O           0.11246832284066   -2.61204411793347   -1.70437436711929
H          -0.05872981579856   -3.50758695554845   -1.99758308205558
O           1.67598552081535    3.26990569979900   -0.84215736765846
H           1.09345914512507    3.35918951533406   -0.05899238918789
H           2.10616267129274    2.42021649951593   -0.69229674647123
O          -0.52270636484593    2.56187215664709   -2.10070231141907
H          -1.09909762716990    3.32377099779124   -2.00823982473027
H           0.37284805534102    2.86433914989409   -1.79316770060110
O          -1.97354770103218   -1.68157404591615   -0.39360052352921
H          -1.77575761744837   -1.92281338016523    0.52396778427030
H          -1.85793990960517   -0.71831885748926   -0.42677224329947
H          -0.74908149199744   -2.26102787929857   -1.35777062267773
N           1.34492155622361   -1.67638490836554    0.47106832067592
H           1.32604730834126   -0.58356485137022    0.41478882266500
H           0.65799070146610   -1.94383221891503    1.20424983827935
H           1.01525308555262   -2.06810338171539   -0.44541871709494
H           2.27948056813676   -1.99800773772443    0.69725696671855
