    26
        -50.45524946  Gyration_radius:  2.42853863497 Dipole_moment: 5.987
 S          -1.39560675833530    1.11317663782867    0.93688564197742
O          -0.55957519783488    1.68777131119727   -0.09900277140506
O          -2.74238157654923    1.56607322263802    0.93677199706971
O          -1.31744738739677   -0.42064715549944    0.83701738600397
O          -0.73489233769481    1.36441666496955    2.30415988482100
H           0.19135187067893    0.98581226595393    2.23462043968658
H          -1.38645127230209   -0.74699929550723   -0.17042332996348
O           1.60136233231036    0.25889557148304    2.09175987188711
H           1.93549354838559    0.08783681173830    2.97433896461009
O          -1.38079010561461   -1.08149425202952   -1.55398534842910
H          -1.80908059788334   -0.27833722618381   -1.93055841764660
O           2.01167574159057    1.18148953870657   -0.55662446850913
H           2.25730749676949    0.95926812479708    0.34934368382140
H           1.10758975301085    1.54043973961756   -0.47733314770860
O          -2.45496056785139    1.32234631258458   -1.94457538866956
H          -3.20872417451609    1.44178277419525   -1.35889926267589
H          -1.70693650971322    1.70858892832163   -1.45891737613157
O           1.28950215552651   -0.96685688172793   -1.89580651957876
H          -0.42397224396599   -1.04617750936352   -1.78329868074923
H           1.62376175098939   -0.90116440417846   -2.79147594561554
H           1.60507688638553   -0.14974036520369   -1.42431488969257
N           1.12193367081649   -2.04155992377911    0.92773236518326
H           1.43233048665090   -0.64672535495911    1.66025246467297
H           1.30025953453816   -1.92044569745234   -0.06499251905954
H           1.52730318533305   -2.92329291748793    1.21482412313416
H           0.11587027665541   -2.09445692065829    1.04250126296833
