    26
        -50.44936902  Gyration_radius:  2.77295143822 Dipole_moment: 7.573
 S           0.09253307736489   -2.84869408793270   -1.34361702057421
O           1.44080843820254   -2.39840100011266   -0.99091186900570
O          -0.03405358577747   -4.23694344499788   -1.64782894911546
O          -0.75138353563744   -2.66734170546451    0.05614516448215
O          -0.54639737799208   -1.92396224356554   -2.26282386459558
H          -0.54406075911768   -0.36527876725840   -2.30921222598025
H          -1.03253370610845   -3.56978243229209    0.16475364745321
O          -0.80607162305720   -0.31768416140927    1.50333938288487
H          -0.97653235308884   -1.19478115722304    1.12875627744068
O          -0.43553057896086    0.62927155784330   -2.30491711646890
H          -0.36310503443092    0.88433619365562   -3.22511743090570
O           0.69603808627589    1.39040904676976    2.99325595752087
H           0.25123926859764    1.70353973929135    3.78210823745327
H           0.15806409903325    0.65444995051449    2.65114999179694
O           0.72717383141109    2.76697970794422    0.65449802197572
H           0.82575341745312    3.70811414319147    0.80026169256264
H           0.79382568553149    2.33909098953222    1.53297436450392
O          -1.70230617717351    1.60977423711770   -0.05562863649772
H          -1.53383101781446    1.27783145220699   -0.95100984969449
H          -1.35450210741708    0.32950976659509    0.99039822831604
H          -0.94128797875205    2.18386451425295    0.14036564679054
N           1.23054405249247    0.02939297304337   -0.25540979945172
H           0.75126345160208    0.51056555927252   -1.04052888394115
H           2.07280421244952    0.52655164506006    0.01370288731568
H           0.56238901779342   -0.02559979337820    0.54821723072403
H           1.41915918723104   -0.99521266234942   -0.57292106471970
