    26
        -50.46180251  Gyration_radius:  2.4730171225 Dipole_moment: 6.962
 S           1.58624734220760    1.16364291173564    0.68191097813310
O           2.22858125778926    0.62273796152082    1.85252121984479
O           2.26724942187934    2.19619180651269   -0.04242274956251
O           1.17259402007664    0.05230453375238   -0.21569647570704
O           0.22094746143620    1.83482962989747    1.13778347536239
H          -0.39692339926723    1.15359581008165    1.47593274092874
H           1.02210265378816   -1.55113570531156   -0.47593383044470
O           0.79348752325765   -2.49686766603326   -0.62577164713510
H           1.53097566786947   -2.86998112028396   -1.11156721681953
O          -1.54567790319478   -0.06252165564035    1.73587789703597
H          -1.98034851430227    0.05958020386429    2.58147145882970
O          -1.45132097708942   -1.95510870650711   -2.09024265089968
H          -0.64493190377639   -2.22385699631758   -1.60009418852694
H          -2.11871253967833   -2.61123017154615   -1.88607068032941
O           0.15746568381056    2.78505826629766   -1.57667103525939
H           0.97759827428242    2.53765602124160   -1.09492239035165
H          -0.01006844897286    3.69260959795656   -1.31666651073204
O           0.60374950521931   -1.43444955894265    2.19460859606024
H          -0.79527476436411   -0.70334205227535    1.91012684660864
H           0.79089759209653   -2.03885511044980    1.46770381848656
H           1.28858963670202   -0.72564524449031    2.15244456664547
N          -1.19061276603491    0.52351533684357   -1.05105473803339
H          -1.05169090423532    1.45778847922529   -1.47416929515235
H          -1.77394135231560    0.54973885833297   -0.21406181863799
H          -1.49049560294791   -0.23337681080724   -1.69046808365565
H          -0.19048697422924    0.27712138134394   -0.72456828669025
