    26
        -50.44592117  Gyration_radius:  2.58176753446 Dipole_moment: 6.949
 S          -2.32020997276137   -0.87148272526584    0.88327130980107
O          -2.34503976766555    0.56637704332177    0.72226905573668
O          -3.26734561967810   -1.43024052055255    1.77220989882372
O          -2.44992197395032   -1.54848255735669   -0.49383344862150
O          -0.85915685629123   -1.25779267798905    1.28538692971423
H          -0.51779455621404   -0.47880543002584    1.83819074701935
H          -1.73199145784509   -1.21857774709755   -1.12104616382171
O          -0.55480398598865   -0.83749067322625   -2.08033859581676
H          -0.64263675428359   -1.34562937983250   -2.88836491059095
O           1.19901635415220    2.17949611221336    0.54532325014167
H           1.29161648241022    3.12850006297244    0.64149588919912
O          -0.28796857616304    0.92853633216310    2.43651777200812
H          -1.15066522815566    1.23798869079483    2.12425275969362
H           0.37665260096877    1.37003035752883    1.86508457330489
O           3.15044839789328    0.37383208119349   -0.19096163278611
H           2.50370885069277    1.01188180176779    0.15852811502193
H           3.70248207653260    0.85578945193686   -0.80818690152272
O          -0.77037659492022    1.73243245989251   -1.09582608394608
H          -0.60774572875105    0.95962603005767   -1.65628210027825
H          -1.46176990485060    1.43982249734105   -0.46964222798682
H           0.48209309616825    2.03557584190376   -0.13833949029839
N           1.33528285483659   -1.82288254008939   -0.64265796876336
H           2.07033838454844   -1.13176669036895   -0.48913526296036
H           0.83519016544917   -1.93687310012486    0.23327143886107
H           0.24680712263646   -1.23589023539974   -1.55467372979095
H           1.77379061116264   -2.70397449579301   -0.87651324208855
