    26
        -50.46746635  Gyration_radius:  2.41225403414 Dipole_moment: 5.262
 S          -1.56392854077362   -0.33767587863183   -0.95345144191630
O          -0.81799133876042    0.67007544959081   -0.18384641844028
O          -2.23069876988398    0.22445604331790   -2.09172553140545
O          -0.40500541872761   -1.30606584385225   -1.51155282478179
O          -2.34070249788963   -1.17139089571091   -0.06594166443929
H          -1.68478555544868   -1.27571838307771    1.36633119083198
H          -0.07658252148540   -0.78273335442939   -2.29837619543033
O          -1.17438031576840   -1.44753857965383    2.20937258845910
H          -1.63568701217846   -2.16822046191724    2.64171877058550
O           2.15894539266614    0.83905291137347    1.08641887898117
H           1.44695092582055    1.15791351314718    1.68975356900915
O          -0.15997636740668    1.25457356935171    2.33460007704795
H          -0.55508498357627    1.17642148875528    1.44541331253722
H          -0.50203989068438    0.49010078389540    2.80888655850031
O           0.12784138620547    0.44651536104499   -3.29303451719658
H           0.62015996226029    1.11098198139712   -2.78134794584670
H          -0.82138696403122    0.62923409942443   -3.16149724853363
O           1.11432694470587    2.01142120879212   -1.20285740763842
H           0.32436014872531    1.54201276896229   -0.81960770984150
H           0.92291824926363    2.94875408360264   -1.13983506877721
H           2.01968290565521    1.31744777447494    0.24842914677493
N           1.06315130826145   -1.48860811243931    0.73614629672344
H           0.29805116526448   -1.54057139795601    1.45267036277468
H           1.69125135485749   -2.28256621774914    0.80606198110992
H           0.58440786059113   -1.47105522992741   -0.19038155695992
H           1.59620258230628   -0.54681667183105    0.86765280776637
