    26
        -50.46812749  Gyration_radius:  2.40079725916 Dipole_moment: 4.908
 S           0.61199746067818    1.34111605117258   -0.34686477036087
O           1.66783795719045    1.66343330788483    0.57473983758842
O          -0.05980442145927    2.46336924564921   -0.95619124842695
O           1.02779587743014    0.34848500469856   -1.36193114526401
O          -0.50553780753983    0.56071799238434    0.47464368186646
H          -0.26842183987500    0.63295643114649    1.44715513307780
H           1.39558867955887   -1.01954441705474   -0.61688624377959
O          -1.18839374677774   -2.19432059281162    0.03693751671106
H          -0.21567226180647   -2.29104665135249    0.02798308332957
O           1.51108532501586   -1.89361911664145   -0.15875479467766
H           2.16598555759338   -2.37857292029738   -0.66352053418510
O          -2.51056444842243    1.73812012805896   -1.33282915792765
H          -2.87912280833744    1.74920529681713   -0.44722519305078
H          -1.61110120130765    2.15298512320320   -1.24618751579770
O           0.20385431252731    0.66797442549309    2.94192754880959
H           0.50590315759705    1.56831940957453    3.08523003362498
H           1.03500149962525    0.13880637872443    2.81342806582896
O           2.41212382531407   -0.43353338767468    2.04563309501826
H           2.17503182800142   -1.15259193838438    1.44111643078117
H           2.40103757721745    0.37378262684770    1.49363515969988
H          -1.36358155937139   -1.56663438706059    0.74519596439968
N          -1.32072216801813   -0.51153900301475   -2.02783095768051
H          -1.49338363621611   -0.86545724241750   -2.96258097614934
H          -0.32608491209642   -0.14514530839988   -1.91624151933070
H          -1.94719712579387    0.31362025600381   -1.80045163555700
H          -1.42365512072975   -1.26088671254787   -1.29012982856068
