    26
        -50.46172241  Gyration_radius:  2.52012972475 Dipole_moment: 6.737
 S           0.86323725750774    1.81867633299735   -1.00281099644519
O           0.72480626675347    1.52971155627775    0.44079505597767
O           2.19184470556155    2.20227729760444   -1.36378283246823
O           0.36045216912926    0.68289842852742   -1.77565275967103
O          -0.11194046058413    3.02703153813741   -1.27391444838520
H          -0.96013686210437    2.77802566194773   -0.90516676229532
H           1.83720847082465   -0.26758983851480   -2.00653287453670
O          -0.67956603344777   -2.28330673084973    0.48850173255906
H          -0.73880624122240   -3.15127091550133    0.08759003448392
O           2.72283792155885   -0.46486607035118   -1.64447873695604
H           3.11426861676277    0.41943885739615   -1.59133647236098
O          -1.96223760523595   -0.80683279401063    2.51333969376601
H          -2.82981290403481   -1.18071181143461    2.67494888920328
H          -1.50440912591670   -1.41429443412106    1.91116749924312
O          -1.89535827376983    1.36871336013560    0.77918037043655
H          -2.04140630110708    0.79960750113283    1.55421265578548
H          -0.92743088774745    1.50627898953635    0.76749408974483
O          -1.82289150848813   -0.59041756525683   -1.04547699331562
H          -1.05485511226568   -0.18724416686362   -1.50242528100630
H          -1.16039735031180   -1.64869770568028   -0.15057064047219
H          -2.10429261881492    0.11417561701653   -0.42128992951907
N           1.60924595348651   -0.87722413679834    0.71526809530631
H           2.18026349260992   -0.90064715149266   -0.17790583752833
H           2.16991152348945   -1.07995254763650    1.53584790997405
H           1.23582120596682    0.12657729302821    0.74350997648479
H           0.78364370138054   -1.52035656517572    0.64948855198315
