    26
        -50.44655000  Gyration_radius:  2.48649035609 Dipole_moment: 5.497
 S           1.97730445930427   -0.91875476740803   -0.38507759511945
O           1.07124494636998   -1.48412962321321    0.59111744474135
O           3.20466322801810   -1.58796252003456   -0.58915006516499
O           1.21056993351969   -0.79424812703244   -1.72935807428713
O           2.26250285496249    0.55172978292972   -0.00258310671188
H           1.40330342521410    1.03746063216872    0.15133063199056
H           0.21340114553981   -0.92225917931698   -1.63010188308942
O          -1.33650322002715   -1.12826077344257   -1.62970860428978
H          -1.53340690946647   -1.94800544170520   -2.08695840175278
O           0.07796115032292    1.92744591465228    0.18467440480572
H           0.33718607540126    2.83572951122757    0.35121549721191
O          -1.43871602609013    0.62886066413582    2.16960477870963
H          -1.05433978225885    1.18232185351031    1.47559206305711
H          -0.67509653627973    0.35608414589005    2.70840181991035
O           0.96922334156356   -0.35474303309037    3.03759211747735
H           1.16634109831303   -1.02814386265468    3.69009794516335
H           1.09031226648825   -0.77316028019030    2.16500384034254
O          -1.63664481990313   -1.67125943011176    0.84731872905330
H          -1.76235942161037   -0.84316954588369    1.37155750690070
H          -1.55335165418619   -1.30408592278912   -0.65137031311501
H          -0.69262849803944   -1.87169920513091    0.94070663414178
N          -0.69560340988697    1.65670586969295   -2.30885772487449
H          -0.25961716763996    1.87800376114982   -0.76631571378257
H          -1.25145681889311    2.33309895604191   -2.81637767382274
H           0.13368553949426    1.44836535794507   -2.85185680243815
H          -1.22797520026916    0.79407523264109   -2.23649744506056
