    26
        -50.43849512  Gyration_radius:  2.68749612449 Dipole_moment: 7.921
 S          -1.63951884132965    2.17804332873909   -1.36772589046979
O          -2.54491755472505    1.08616406340739   -1.59045528771199
O          -2.14705599588732    3.49762476561268   -1.38917436437292
O          -0.91778297932262    1.90499599036038    0.00356931045674
O          -0.45343063354600    2.09506581215264   -2.37099978408148
H           0.05659904902628    1.25371712261771   -2.23080058663313
H          -1.16216318516441    0.96215348886690    0.24378496784328
O          -1.76908831108419   -0.50078300965177    0.36378784466570
H          -2.40376415574060   -0.20441557811257   -0.31228369118392
O           1.10922471248226    0.06566609123074   -1.84792886906475
H           1.86936333977044    0.14671240710135   -2.42647263696383
O           1.40238969377105   -2.58649413270185    1.41606027696311
H           1.24976944775779   -3.43573753165255    1.83293452728410
H           0.92217080112116   -1.92447167901812    1.94323886634693
O          -0.12632682083690   -0.60110761097870    2.55978791163521
H          -0.81541056945770   -0.55398215267896    1.87428458532903
H          -0.55820653058725   -0.41035509304090    3.39351243069960
O          -0.13648103369065   -2.17077783104558   -0.81346295739721
H           0.31426002976238   -1.52731929814301   -1.38067144672622
H           0.50120181083193   -2.40506913292657   -0.11255846786778
H          -1.21559306244673   -1.19421199936278   -0.09942694410576
N           1.75642972257438    0.88499403883190    0.55781707079055
H           2.70116603451298    1.16733198712586    0.78491409125337
H           1.41004685335959    0.35024665572159   -0.91991217924704
H           1.44701139659344    0.22590862685677    1.26428301541037
H           1.15010677225486    1.69610068069019    0.62389822714517
