    26
        -50.45779539  Gyration_radius:  2.49968664672 Dipole_moment: 8.722
 S          -0.54826774372390   -1.10814251795040   -1.92863067971333
O          -0.00203535752377    0.13286762185905   -2.51312567467713
O          -1.48788291507500   -1.77658799609480   -2.75620451057051
O           0.69515934576736   -2.06017974482756   -1.70116652893535
O          -1.02990611482416   -0.80650382895897   -0.56846279275056
H          -1.20657157937423   -0.54370967435594    0.98870411047997
H           1.17928230754378   -1.69345255005910   -0.94246158766796
O          -1.31561591513325   -0.29618001308140    1.94113942058908
H          -2.17841416608547   -0.63012480797542    2.19268126283923
O           2.21086362020059   -1.07759468331878    0.37759588927848
H           2.94955384164301   -1.68761146347513    0.34295416279503
O          -2.26694529700887    1.42745141506932   -1.26995181715071
H          -1.95941565839038    0.52442993138426   -1.05314604345530
H          -1.97289197568602    1.56976090321357   -2.17248043412286
O          -0.79245494186929    2.20535829311741    0.82673820164511
H          -1.01564433259239    1.47031501145663    1.42101977596001
H          -1.45089225864670    2.14051210206051    0.09922412482427
O           1.03388796389907   -1.30760901364903    2.72756311883325
H           0.12299827557223   -1.00863289556410    2.51224334533139
H           1.76439166733368   -1.22893695102205    1.25041956322181
H           1.34492726801711   -0.73586974058462    3.43162599496390
N           1.21039844981043    1.31529776706878   -0.62825300526995
H           0.45767602405039    1.71732800351281    0.01815756141343
H           1.73130835782615    0.56424362927182   -0.16081680002890
H           0.69044066266319    0.84902194117389   -1.48307790837122
H           1.83605046160461    2.04454926172522   -0.95228873945522
