    26
        -50.45221923  Gyration_radius:  2.5259777282 Dipole_moment: 6.841
 S           1.49460844107093   -1.41550760086955   -1.11271921066699
O           1.27658107523751    0.04291628280248   -1.27097653928679
O           2.70558790007714   -1.88944919548753   -1.68448284984562
O           1.56610412717322   -1.60518723196368    0.47660481037656
O           0.28443926011007   -2.13233515068897   -1.50684210255044
H          -0.97792555385390   -1.93089711401793   -0.70428533670244
H           1.62489451397756   -0.71300296069875    0.84680009195715
O          -1.84913925290204   -1.67930159596374   -0.24484397025930
H          -2.44651276698455   -2.41098306669182   -0.40618634704867
O           1.09252268651734    0.55442023838327    2.12183178929322
H           1.61894854748902    0.47936401318901    2.91921135059095
O           1.32503902305982    2.40124574259778    0.06962012423130
H           1.31539587286376    1.94214312929825    0.92256562963496
H           1.50285790026232    1.69385280597411   -0.57381037694855
O          -1.22636751897160    2.89428205643587   -0.28354584858919
H          -1.58449372622147    2.97673312785127    0.60162061117641
H          -0.23527289107534    2.86996907601535   -0.17950024361941
O          -0.68363662835422   -1.42065612284669    2.21248661846525
H          -1.25065318179522   -1.43613863229387    1.41895520561784
H           0.01681487913882   -2.05362343891950    2.01900110397183
H           0.32073259937037   -0.05050118033357    2.24111595091304
N          -1.20612012004669    0.58193063463742   -1.58987239328029
H          -0.14593407770335    0.34292145001608   -1.51999502299242
H          -1.35076869908675    1.50796701668237   -1.10463832331256
H          -1.47982618261033    0.63363498578971   -2.56479713716322
H          -1.70787622674142   -0.18379724889436   -1.10331756395241
