    26
        -50.47114537  Gyration_radius:  2.41077567866 Dipole_moment: 3.635
 S          -1.74797869733622   -0.93570455621038   -0.30323677523595
O          -2.05506480262634    0.48504485831971   -0.33119088725105
O          -1.27352021248358   -1.36953843004202    0.99956011627061
O          -3.11832942580750   -1.68664942542772   -0.56066824270370
O          -0.86540191503283   -1.35435005537703   -1.37939068843865
H           0.36869083420956   -2.21051149166631   -0.68414643399093
H          -3.68071862796317   -1.31898083430484    0.11262889629458
O           0.99938024782085   -2.54190101196259   -0.00530807592809
H           0.42676691906065   -2.68939208385542    0.75696819760678
O           1.52951840878708    1.73745113863294   -1.02146591763589
H           2.09008307848680    2.29984938776350   -1.55717891841387
O           0.26619445190998    0.21970827460711    2.47413945314895
H          -0.38272184120362   -0.41270609237545    2.09831887136997
H          -0.03882887154717    1.09874927068446    2.14507116521198
O          -0.48317454473314    2.25134619441085    0.96144919341099
H          -1.16990968992464    1.70918189534423    0.52833151382638
H           0.23486791226929    2.32280427624042    0.31825422124180
O          -0.52244908084420    1.01763905376952   -2.44435347537156
H           0.76843681341276    1.46272867178936   -1.61466671359241
H          -0.51085339602293    0.04467089169890   -2.38227764845884
H          -1.25792932172219    1.23761567170732   -1.84983427955526
N           2.11804352777136   -0.26935130468019    0.74015813465804
H           3.07898244181201   -0.31291746238318    1.05980848493821
H           2.00086053925786    0.46363231368379    0.01385895006150
H           1.79231693436910   -1.21140021336374    0.36735731146685
H           1.43273832808064   -0.03701895700536    1.55781351707659
