    26
        -50.46981682  Gyration_radius:  2.37133066849 Dipole_moment: 5.560
 S           0.94604936193896   -1.22918698832443    0.65563915363606
O           1.32333772805559   -1.93845842410587   -0.54882797078043
O           1.07206071574952   -1.93678428497760    1.89907918183629
O           1.58278429897797    0.09939373409352    0.70142416047992
O          -0.60855317737946   -0.91926150896619    0.45403015679433
H          -0.89477975683505   -0.73745843122547    1.38453290109510
H           1.95966037515821    0.42856410471042   -0.83835003194781
O           1.98843225975459    0.46691380612771   -1.82598392097737
H           2.19181807205937   -0.44201672346334   -2.07131648391496
O          -1.68401693097919    1.75706568439119    0.09276948529050
H          -2.25088763292147    1.09819241123730    0.50030321532660
O          -0.79533457315300   -2.01207037052549   -2.06578632634702
H          -1.46559171402756   -2.36763462346349   -1.47862054573407
H           0.04964560974639   -2.08495068765225   -1.55290456785102
O          -0.82838376384568   -0.43850376001236    2.98106406308211
H          -0.46257609488473    0.45720328997209    3.01070456753155
H          -0.06967720444993   -1.05415798963842    2.96664394956797
O           0.27497003222368    1.91691937054650    1.94368038232057
H          -0.98179351428137    1.93345784359182    0.75588920897863
H           0.84026339313902    2.67881728280969    2.07862781932473
H           0.83743827315906    1.23231408764387    1.48640304208931
N          -0.62275933956251    0.63578553806481   -2.11962976851541
H          -1.03239027776603    1.07755049759067   -1.25600851539163
H          -0.83863232153272   -0.40285657456192   -2.12680549496016
H          -0.97328517788314    1.09068379103216   -2.95588357783134
H           0.44220135953347    0.69047892517785   -2.07067409311019
