    26
        -50.46764448  Gyration_radius:  2.52673635725 Dipole_moment: 3.910
 S          -1.71119863395375   -1.11771931726911   -1.09565318051765
O          -0.40094115941951   -0.83812196780346   -1.68635934506289
O          -1.59342431102828   -1.71558025827501    0.20908186935142
O          -2.56943656116422    0.05517848159490   -1.14259984729384
O          -2.40397333628294   -2.18054694006099   -2.04367295204128
H          -2.73502094652671   -1.60654287565121   -2.72568510759345
H          -2.07509050259575    1.21620301998172   -0.18772930628316
O          -1.69240798674009    1.91312530394485    0.41313014185194
H          -2.39600441832583    2.54768857989346    0.55812083086383
O           2.61247345095461    1.64983516340413    0.39528699190428
H           2.62527290910246    2.53759563692741    0.75489468386451
O           1.61386856215377   -2.06545194489843   -0.60736830497201
H           0.77775769194292   -1.71296747150545   -1.00389931163523
H           2.30327925714029   -1.85171891354834   -1.24012592580918
O          -0.83688061281152   -0.06236910590186    2.09024223205289
H          -1.21351807873884   -0.76744706898948    1.51454454241385
H          -1.11433576987839    0.76775109641776    1.66177179233269
O           0.53921354572962    1.62494267514366   -1.20087968700887
H           0.25110763589718    0.73784645122497   -1.49430422345377
H          -0.19613286941109    1.95123904265164   -0.65948789764732
H           1.89958060132516    1.64976251171808   -0.30130034816151
N           1.67895748861078   -0.55001720661920    1.57768338824925
H           1.66426992232242   -1.23107925574849    0.76818570543428
H           2.13006089364045    0.33326287955150    1.23370541481330
H           0.65930654233015   -0.34053063613556    1.84882371487153
H           2.18321665571421   -0.94433788006208    2.36359411948068
