    26
        -50.45909913  Gyration_radius:  2.47762420891 Dipole_moment: 8.432
 S          -0.66110066585943   -1.55654591674475   -1.81160557965352
O           0.01756767669943   -0.45687001324667   -2.52164201564420
O          -0.55062895282995   -2.82442534702392   -2.44414045368967
O          -0.19896812109856   -1.55735334795459   -0.40207288927235
O          -2.17655915550472   -1.14979769001616   -1.74220229519633
H          -2.17137579952995   -0.29829046836476   -1.26970704020794
H           1.21170974399505   -1.32295106158099    0.14088742588088
O           2.10899686237128   -1.07933898671058    0.53344200769169
H           2.57665120495791   -1.90985188636987    0.63006313884583
O          -2.28335809736541    1.01820177153610   -0.10986132042963
H          -3.20490846789053    1.27520308325020   -0.05522856010383
O           0.05368554554978    2.29303233764690    0.52546208120277
H          -0.83202158378945    1.99846552782825    0.24405140818936
H           0.26278751657890    1.77717270726414    1.32234806062626
O           0.88464217056358    0.43815138059937    2.42331360512291
H           1.37995195790462   -0.13942203201097    1.80425376263569
H           1.40860369825533    0.51270262336219    3.22150746458299
O          -1.57215973678321   -0.71725767039258    1.67448935289634
H          -2.11754052343649    0.37726210544382    0.64537292631522
H          -1.13813786544975   -1.22486775648215    0.95262869761177
H          -0.83940128318031   -0.32716984149317    2.17230729358587
N           1.59669113698978    0.99653057857307   -1.18794595207402
H           2.20585831044105    1.53599166711457   -1.79163029745596
H           0.89899086055423    0.38360051512571   -1.79289812402309
H           2.12538960778298    0.33653142159669   -0.60296801859853
H           1.01463393007120    1.62129630905360   -0.55822468885104
