    26
        -50.44072279  Gyration_radius:  2.66744444394 Dipole_moment: 8.113
 S          -2.34596662242900   -1.68791344853105   -0.48599409292745
O          -2.26920706729151   -1.10739852501782   -1.79841676914617
O          -2.93163530371375   -2.96741438343755   -0.34525464934964
O          -0.88754618942248   -1.69045781698997    0.10537638560666
O          -3.07256426075442   -0.70815388347594    0.47576939479748
H          -2.58998288547610    0.16159319283947    0.48179910102569
H          -0.30166790376277   -1.29129219533632   -0.60820746150877
O          -1.68213135610231    1.47694859794445    0.78078825372134
H          -2.19351472011943    2.07930856700562    1.32353735673684
O           0.29649382259293   -0.58742149170298   -1.88660382339071
H          -0.58274966765127   -0.71521000747201   -2.28611552446179
O           2.87149476371305   -0.97196927149862   -1.04160729536491
H           3.45345740869504   -0.89601513831873   -1.79978209926854
H           1.96881067232960   -1.02974944257147   -1.39800375505721
O           2.51325568841710    1.07352205976215    0.67638650296849
H           3.33619857071130    1.56154544628850    0.72785973394026
H           2.69154372131933    0.28364855961765    0.11875803218251
O           0.43267872340002    1.87222788434529   -0.98093370513359
H          -0.38923970193256    1.90381947931062   -0.46796820157058
H           1.15082088893693    1.74570799868006   -0.33625935396902
H           0.34872972077050    0.38324885539882   -1.66357825218980
N           0.10463535861927    0.19444069717318    2.17216438404654
H           0.11033483445868    0.14020808458205    3.18211050802174
H           1.02687324162172    0.48768320024879    1.86131572609469
H          -0.06134576161253   -0.73668335816612    1.80255423585338
H          -0.99777596538931    1.02577634935269    1.39030535832959
