    26
        -50.46185355  Gyration_radius:  2.44950501845 Dipole_moment: 8.672
 S          -1.09121473085306    0.70722902863660   -1.79262956763379
O          -1.39879452305973    0.83932597416182   -0.36786636645918
O          -0.89181296011811    1.95174468492352   -2.46188835704979
O           0.06194739578168   -0.21329649316223   -1.94006796858889
O          -2.30878888792107   -0.03269814546071   -2.46160941420746
H          -2.40593458100019   -0.85996641971427   -1.97803991391544
H           1.26494247801077    1.01529136653570   -1.86200208790385
O          -0.64663192174382   -1.52830773083429    2.32247267533504
H          -0.39517528773508   -1.80004790949757    3.20564958122564
O           1.69597065547927    1.82789069844228   -1.53223151986355
H           1.05086541411348    2.50787929307063   -1.75972629677118
O          -1.93710623376118   -1.71117100218144   -0.24867789421119
H          -2.11205734635912   -2.04455348785274    0.63555865592210
H          -1.79507126308518   -0.74868096989964   -0.13938939092633
O           2.20342202792197    1.01116564890159    0.89663978574922
H           3.08193275352918    1.31162504200503    1.13376687309877
H           2.00481457754474    1.41935405440254    0.00848637370771
O          -0.37307582708860    1.06312897938397    2.07648349030700
H          -0.65780703549974   -0.53062318428494    2.33023435513822
H           0.55349390222216    1.21457670741803    1.84299104544280
H          -0.85880167852811    1.15449713064884    1.23405079542910
N           1.00238761379079   -1.33300361695887    0.18211360553535
H           0.51183932191278   -0.94685547950094   -0.70336912279988
H           1.60190007221778   -0.55919891285769    0.53448998375925
H           0.28928813412998   -1.56562246318988    0.91236285141414
H           1.54946791009932   -2.14968277313661   -0.06780215173389
