    26
        -50.45036702  Gyration_radius:  2.47393069013 Dipole_moment: 6.440
 S          -2.27129221564570    0.76976528870004    0.44907189055501
O          -1.41493064424894    0.37898422408691    1.54555979578707
O          -3.26047196728880    1.74376406926018    0.72607836196597
O          -1.36394354183304    1.20886461603787   -0.73477255639368
O          -2.92111162950041   -0.50385555429316   -0.13381498953013
H          -2.16763601384046   -1.15553022921986   -0.19312808239830
H          -0.46320149953922    1.63754659400484   -0.43376449753675
O          -0.91587901968558   -2.13780717139728   -0.27747223709552
H          -1.16981448148539   -2.94386482602462    0.17476736918335
O           2.11272674434246    0.22626740382332   -1.63471448658479
H           2.64444301739328    0.54922200876731   -2.36339387935538
O           0.90469956978861    1.15253508489848    2.44672147800259
H           0.80968128258950    1.76632349560129    3.17665376851851
H          -0.00499298627012    0.84712737282008    2.22489797658305
O           0.89715197143542    2.07880692576305   -0.08703740929629
H           1.44999375868527    1.47117429443707   -0.62523688332880
H           1.03475026020403    1.81779821433880    0.84777865381370
O          -0.24397662877208   -0.60321254470863   -2.51269070870083
H          -0.48192166573001   -1.37345445252569   -1.97870455142738
H          -0.78741948627078    0.11943591787686   -2.16475235267466
H           1.27348640649403   -0.11931057807806   -2.03608747973416
N           1.35936745144297   -1.37889614316722    0.76502356823438
H           1.86763862531712   -0.92578968559828    0.01142776873007
H           1.94117497572170   -2.12359560586842    1.12730903629345
H           1.23363900054603   -0.69387693778039    1.50188907391441
H          -0.06216128385218   -1.80842179175633    0.17839135246910
