    26
        -50.45724319  Gyration_radius:  2.49651600572 Dipole_moment: 7.206
 S           1.44816709067012    1.73803890122413   -0.85235847271378
O           1.38174326468604    1.82672038032451    0.62160874215381
O           2.63735558585010    2.27611516037730   -1.40899159841657
O           1.15190930350161    0.34803669071332   -1.24400602875033
O           0.21490683537865    2.57779414270677   -1.38272209437874
H          -0.58660869625705    2.04450711435196   -1.23449876344324
H           1.64960900560756   -0.54252958394724   -0.04169008167707
O           1.90885363555776   -1.13157705487332    0.71924564173666
H           2.66255639746138   -0.69566424743043    1.11968979408807
O          -2.07955456340503    1.15010557373432   -0.93910225699144
H          -2.73920853588517    1.47502556892306   -1.55313041103924
O          -0.33717322718128   -1.34053149790403    2.18904105869593
H           0.57287054948031   -1.27285904234552    1.82459801733067
H          -0.75166302297021   -2.03326567605774    1.66358300694950
O          -0.04038690371915   -2.96449551590394   -0.14760942699583
H           0.77721487903672   -2.47776997403794    0.04462368846485
H           0.21603654233187   -3.74829986064809   -0.63567035444136
O          -1.01020265468517   -1.00205602513493   -1.86385268917083
H          -0.89174324573610   -1.75937388614027   -1.26641312627967
H          -1.76321983637950    0.26699473878598   -1.30499733298448
H          -0.14119118056928   -0.54593037019221   -1.84478966833902
N          -0.88609344894707    1.16779127139987    1.52208344155070
H          -1.18628403953567    1.77627965612798    2.27514467251108
H          -1.53736915099639    1.21307909080416    0.72679398660162
H           0.11632665136332    1.48245010284405    1.15585512590421
H          -0.78685123465539    0.17141435229849    1.85756511962295
