    26
        -50.46269059  Gyration_radius:  2.40617846835 Dipole_moment: 8.510
 S           0.20464636933969   -1.57104962852500    0.09549831921992
O           1.59415540652161   -1.69818110513933    0.54685017665713
O          -0.43188464213912   -2.80362066648893   -0.24452626941498
O          -0.59083946376682   -0.97961811096288    1.33075419876071
O           0.12118157057141   -0.55090624836445   -0.95933634097471
H           1.32008075637271    0.26154539582712   -1.76927429329174
H          -0.20392094681976   -0.10682254535668    1.54502341459906
O           2.14806494695744    0.72462617539172   -2.03856462093591
H           2.58423798168954    0.14607057935795   -2.66584437684812
O           0.29381726574730    1.53736940783419    1.70836031868425
H          -0.08613237552421    2.01518560012940    2.44697922244732
O          -3.15512417772609    0.10349234777823    0.61991770806670
H          -2.65626188972849   -0.37767544668951    1.28792195815932
H          -3.16344587046466   -0.50131173700461   -0.15202964541134
O          -2.51678564801401   -1.58766770566451   -1.37761586161789
H          -2.02664614869535   -1.09023317606117   -2.03635417048794
H          -1.85484665467668   -2.16922551689235   -0.95636057016138
O          -1.22234487727278    1.67605120579776   -0.31813839228701
H          -0.77215405119158    0.93238835411714   -0.76285906330994
H          -2.06676949832886    1.28101902743876    0.00880859549907
H          -0.30519233169167    1.73652638529696    0.90152023298415
N           2.58726260145569    0.63223683114021    0.57242093954530
H           1.86881077954630    1.19582025172525    1.05795184137777
H           2.23523068463153   -0.41159957220411    0.61160116352621
H           2.59428388131070    0.86416314089615   -0.45156775092361
H           3.50057633194748    0.74141676662097    0.99886325615068
