    26
        -50.45151764  Gyration_radius:  2.45891962867 Dipole_moment: 4.033
 S           1.38551605451600    1.19844674942330    0.68353002854904
O          -0.02725608568332    0.96987484142074    0.91340320598539
O           1.69120161108459    2.48837016286488    0.16773020287031
O           2.16501514086765    0.91076180583919    1.96081525079057
O           1.91547770936732    0.08855630786103   -0.25944292994990
H           1.27037082439044   -0.16128570518075   -0.99997897198845
H           1.95225399678129   -0.07025211425276    2.15095872439172
O           0.34737913016842   -0.60594050180085   -2.14306225563040
H           0.71733812150591   -0.33651574199954   -2.98576884808020
O           1.66022305242858   -1.56310348124220    2.16222920614660
H           2.46723567347720   -1.97007629902454    1.83909631070513
O          -0.99342319724278    2.87583519930834   -0.74751967899606
H          -0.71806169841363    2.30461150623887   -0.01200816685097
H          -0.21384064880835    3.40179916258740   -0.94291977926113
O          -2.34183135625704   -0.33607691355980    0.64756970112008
H          -1.49886764397415    0.12376045973269    0.82591020926600
H          -2.99735975872772    0.08151466308811    1.20870077695345
O          -1.91181657393894    0.60317177839565   -1.91331787769013
H          -0.55663346059760   -0.15344089921978   -2.07716078973673
H          -2.27305416935224    0.19406812589181   -1.10688467502009
H          -1.68725593795893    1.51893636816426   -1.65534781495223
N          -0.13028237361348   -2.36856914070335    0.38369846350911
H          -0.29158713429215   -3.36812431609511    0.36392698186654
H           0.93733114456407   -1.83072835621183    1.50748613487890
H           0.15119946083295   -2.07858914014685   -0.54650429567453
H          -1.01927189118705   -1.91700450137498    0.57486089681947
