    26
        -50.45345370  Gyration_radius:  2.49941178924 Dipole_moment: 4.631
 S           0.56137570590300   -0.05820322046139   -1.48251917549905
O           0.79964456940221   -0.94793197230468   -0.36150194910065
O          -0.10142897427433   -0.66360746093685   -2.59256008240773
O          -0.22215232040819    1.16212785739655   -0.97117124398719
O           1.87863585838446    0.55716027608608   -1.94379219488921
H           2.33947766133353    0.94639887130641   -1.12181820701878
H          -1.01805839386826    0.86060224417586   -0.35310753476564
O           2.92507068010698    1.63865986744754    0.09964425714950
H           3.28744734272513    2.48128929639215   -0.18249660313777
O          -2.00550590823275    0.38290610915199    0.58639162052993
H          -2.42473745102117   -0.42167914647571    0.18814200433282
O          -0.65822908987033   -2.99329273662706   -1.38913302188744
H          -0.56559538762679   -2.42618699633576   -2.17056062105192
H          -0.00343024170588   -2.62267558374817   -0.78136524918731
O          -2.89711124259985   -1.83250926164152   -0.53750968414402
H          -3.40428952129954   -1.70346034522142   -1.34040615134569
H          -2.11138051749773   -2.37278642154723   -0.79690359027696
O          -0.00759615301987   -0.60011615377516    2.12817855050905
H           0.40828260505366   -0.75417421179705    1.25120839092302
H          -1.45068807705074    0.05284556702053    1.32096018786330
H          -0.03298651942044   -1.45203971978049    2.56728711792215
N           0.87543931392973    2.21417038356519    1.66353871502662
H           0.62410063988489    1.33858873893251    2.11209152074859
H           0.14219406161675    2.43120655974564    0.99836440973391
H           0.89013233211444    2.93633637381416    2.37251736703801
H           2.17138902760693    1.84637109590106    0.73652116688550
