    26
        -50.45448821  Gyration_radius:  2.49103063341 Dipole_moment: 2.169
 S           0.59843335342091    0.69875029572597   -0.14455684045953
O           1.83164815744604    1.60317761890293   -0.01678628982757
O           1.02812963614129   -0.64276523757831   -0.55066041556305
O          -0.09526957841002    0.65105065747590    1.14483312183827
O          -0.24714515589045    1.29787449105955   -1.17331963289945
O          -0.53550896289626   -1.02405159519301   -2.53906231606840
H          -0.44970196524074   -0.12342642281569   -2.87307843349807
H           0.12741347911614   -1.03872484841037   -1.79055938086854
O           1.47812616866317   -1.39662177011350    1.99266239180005
H           1.41117443340373   -1.52651650558818    1.03299659162226
H           0.83128150244309   -0.69492868114143    2.15285137564890
O          -1.92878910011835   -1.13726116961396    1.07944497928770
H          -2.57246010708252   -0.86379978341266    1.73631252653580
H          -1.19169365872746   -0.45860647783385    1.11745549012922
O          -2.77979813766345    1.58436374194459   -1.05655903585367
H          -1.78119787756072    1.59583804244287   -0.99138034671376
H          -3.00736984804390    2.18991791979702   -1.76408807055910
O          -2.71053384415454   -0.93452623961165   -1.30101953081351
H          -1.81885780364869   -1.05889590864450   -1.87130828253425
H          -2.43388499544969   -1.13950966829021   -0.31804067469286
H          -2.87968837881451    0.08042405874211   -1.27741129655364
N           3.51108805167603    0.44547189383722    1.53958018145053
H           4.31860097622611    0.08059504123649    1.05326765946211
H           2.94709840877373   -0.34040597347180    1.88369384345608
H           3.82467014409026    0.99899016826451    2.32513638458006
H           2.52423509230671    1.15358636229324    0.60959599108700
