    26
        -50.45856484  Gyration_radius:  2.45622138307 Dipole_moment: 8.123
 S          -1.03816219483786   -1.61623381923907    0.98276989909069
O          -0.48459715819203   -1.57322050518733   -0.40019704792617
O          -1.39537311500443   -2.92624418924154    1.39243745720530
O          -0.11765671287940   -0.89331074137620    1.86666840607134
O          -2.34652615189181   -0.73687966006037    0.91295040429021
H          -2.07418911948313    0.19321003250218    0.79910882562838
H           1.35623135641940   -1.26881971572521    1.23219897095235
O           2.10564856418263   -1.38763745946087    0.60247708601315
H           1.72507912821682   -1.92099287216833   -0.10178344388412
O          -1.62829850373330    1.86567032027159    0.56604361924112
H          -2.29673539386530    2.41579190084631    0.97599323148823
O           2.40699701050619    1.10727981090242   -0.09859340672420
H           2.38204083466473    0.14669099088232    0.18212562820226
H           3.33140355133739    1.33254694849382   -0.20566104857294
O          -0.93752369541472   -1.10062776876735   -3.08067333064918
H          -0.87611959249637   -1.51861778878877   -2.20538365581240
H          -1.44229240981299   -1.70059836160175   -3.63028163207714
O           0.53260285605284    1.66124307728432    1.95234402254766
H           1.29893936897149    1.65383650311790    1.35922541270099
H          -0.81921639204083    1.89763544393581    1.16478131645015
H           0.34389684383346    0.71493430200218    2.13411931588747
N           0.00510763650892    0.76694776864768   -1.29818267953513
H          -0.68791207052264    1.40730725308714   -0.89105069465735
H          -0.16644384095363   -0.21719908137903   -0.85011761631943
H          -0.14428164811142    0.63125525009314   -2.29884484380095
H           0.96738084854426    1.06603234092848   -1.06247421581152
