    26
        -50.45724316  Gyration_radius:  2.4963907318 Dipole_moment: 7.205
 S           1.09677559357197   -0.21777168213558   -2.14314760456715
O           2.10782367541897   -0.23303811583925   -1.06495981606669
O           1.59557813994488    0.22778281534398   -3.39460123844183
O           0.61666987827711   -1.71912094167673   -2.29404212057121
O          -0.08881134518633    0.50797407382622   -1.65227701011208
H           0.46183670376684    1.55830718107934   -0.61335019190674
H           0.03252297305002   -1.91556311513299   -1.53976893153505
O          -0.98815519452806   -2.35015468957493   -0.16648418300021
H          -1.53632068859199   -3.08871943813724   -0.43440560105784
O           0.76889018145756    2.20107364588448    0.08374063724458
H           1.64520950257618    2.46697764651277   -0.19871299653403
O          -1.78156012861460    2.01415749609499    1.25482559797841
H          -2.42588724704598    2.71120834631256    1.12335870545631
H          -0.98567850254481    2.27659507026106    0.76486432468414
O           0.56064139221857    0.82570967752980    2.38882144609920
H           0.79144519293557    1.40952087811592    1.63289777714925
H          -0.38158706703519    0.97393918738727    2.52322677625897
O          -2.30453487909703   -0.15072979594270   -0.41190796528493
H          -1.61742987190288    0.15897164530625   -1.04087061850987
H          -1.57818438519721   -1.53480388621320   -0.19549220178459
H          -2.27013740367536    0.49693155802737    0.31184344969261
N           1.25474765490699   -1.34839580347551    1.03653752404603
H           0.96965927302050   -0.56537791750986    1.68529598263341
H           1.95921166238567   -1.93733850433844    1.46587358438233
H           0.43095079317155   -1.89850964336752    0.75826363980779
H           1.66632412670557   -0.86962568836997    0.12047102393301
