    26
        -50.45677767  Gyration_radius:  2.47541532927 Dipole_moment: 5.443
 S           0.13851901876675    2.12520060702999    0.32542094291409
O           1.03627429383855    2.01690104797229   -0.82054438793287
O          -1.16090760285351    1.54467847692774    0.08159376577670
O           0.77656395861169    1.62107069284380    1.53070719081894
O          -0.10045273156611    3.67378221249931    0.54889527693353
H           0.78532695058698    4.01879158711261    0.59553245591467
H           1.43477381570949    0.20292891219193    1.42959143417940
O          -0.71103385988739   -2.17062189912698   -1.30812146655961
H          -0.69053166110806   -3.08758840496761   -1.58269689196004
O           1.87216685169972   -0.68738916546238    1.29804849252766
H           2.55739345397578   -0.74002865483522    1.96592452060094
O          -2.17853935009900   -0.09270899869790    1.90242494622766
H          -1.77302463505605    0.57423293666022    1.30907708601989
H          -3.10464794676899   -0.13098791315756    1.65693510956006
O          -1.08564679670178    0.42016623274209   -2.41646158283488
H          -1.46517957979642   -0.43674967786932   -2.19813918941875
H          -1.18639101408153    0.95984115875983   -1.61754207767815
O          -0.53461916149720   -2.11700811677944    1.28269065850568
H          -1.18349543539480   -1.45524189106194    1.60695938814243
H          -0.72689659460770   -2.17968851677487   -0.30693661426528
H           0.33249565839085   -1.71189965588001    1.43644748112591
N           1.40675608432200   -0.48683920348394   -1.36008598446185
H           1.78930697157585   -0.74100134056856   -0.42931280399399
H           0.52552606194837   -1.03389452328166   -1.52631755364660
H           1.17315271920533    0.55860851465882   -1.29552649397640
H           2.07311052078504   -0.64455442745096   -2.10856369251894
