    26
        -50.45499970  Gyration_radius:  2.40449087396 Dipole_moment: 8.857
 S           0.88970834194738   -0.33510801832162   -1.97961110655051
O           2.01513245683816   -0.85578345482034   -1.21061824570283
O           0.80885518162728   -0.71482543229155   -3.34763596121212
O          -0.40844783923525   -0.96439138408078   -1.24566050172188
O           0.72412103661026    1.11354763182145   -1.75399220686828
H          -0.81074063452050    1.42017792650164   -1.70935783522884
H          -0.01637073117301   -1.30345478907494   -0.42512557760811
O           0.77650981432120    0.91969747786088    1.97004902300500
H           1.00845058837216    1.43372520734879    2.74421758356527
O          -1.79862623408397    1.41670682734335   -1.55452235199937
H          -2.12762027057468    0.74166058821465   -2.15255834732754
O          -1.79750734247929   -2.06525775040674    1.09764031649062
H          -1.97196575481087   -2.44622406330419    0.23315524284461
H          -0.84901647754610   -2.20716174348035    1.26468640021353
O           0.92453391510682   -1.68100679470763    0.99391158200599
H           1.56237164500650   -1.53372040720172    0.25518455832887
H           0.98672487518616   -0.88444895966925    1.54450784162695
O           2.46040477666439    1.45666544437610    0.11236815501048
H           1.82581918370248    1.55030590796862   -0.63967500508938
H           1.45123754707595    1.17758673275981    1.25682399190758
H           2.90877563423046    0.63185807305670   -0.11840943484103
N          -1.72331940346902    0.63262404747369    0.94439433155021
H          -0.77360330207309    0.85056439502447    1.32377568289283
H          -2.43567447431130    1.11132938732169    1.48630328264067
H          -1.77444769860366    0.94394991612339   -0.08895726113023
H          -1.85530482381157   -0.40901674584344    0.99910584320549
