    26
        -50.45906747  Gyration_radius:  2.43897042783 Dipole_moment: 6.685
 S          -1.83385034019450   -0.15515059879171    0.28430173400856
O          -1.06842658445928    0.58601960727766   -0.74018445913912
O          -2.81780307082036   -1.03271906932598   -0.29731016324665
O          -0.89988269604182   -0.88672468697047    1.14552199693537
O          -2.55646559453317    0.90866222666037    1.15176640363966
H          -1.89039700717397    1.63294547608400    1.25197218601554
H          -1.11165070773260   -3.37361159252219    0.07461796437313
O          -1.26023923121109   -3.05879761813430   -0.82044253580801
H          -1.96857526510612   -2.37349153809844   -0.71790564700178
O           1.88673068333294    1.75742588181806    1.03809528367965
H           2.46958979026579    2.04034158334852    1.74410047825445
O          -0.67857942818292    2.73649760746002    1.04605491721844
H          -0.82764192224042    2.89860574942652    0.11056804327025
H           0.22909948480428    2.37887293163567    1.10519769441654
O           1.36599120526565    1.51422145118771   -1.77967430609153
H           1.77056641921609    1.78162405467310   -0.94670258051631
H           0.42385200237509    1.43472576675400   -1.58602814355943
O           1.62978805401549   -0.92604230496779    1.06454673793023
H           0.62495462119039   -0.88438776429774    1.14418297580482
H           1.92564086762050   -1.46553037357210    1.79906224349411
H           1.84928064162619    0.77758175743801    1.06449390243067
N           0.57643151024558   -1.27849054562350   -1.45379084444284
H          -0.07975404948429   -0.44844500549506   -1.25774146501626
H           1.29482623131020   -1.24913232172852   -0.71552494672129
H          -0.04250488227647   -2.13077830390171   -1.33236376116042
H           0.98901928819909   -1.18422237031851   -2.37681369877719
