    26
        -50.45212408  Gyration_radius:  2.5035938058 Dipole_moment: 8.230
 S           1.34596833646216   -0.28841952248570   -1.76223877595560
O           0.23206657721866   -1.20989008270294   -1.44207863829618
O           1.78397766169254   -0.36241550140783   -3.11320141907068
O           0.69762743564577    1.16096519259170   -1.49722325796945
O           2.38660343397327   -0.37620054274111   -0.74703992206138
H           2.13366042721754   -0.16165141108906    0.73740056077983
H          -0.24768643182111    1.07344503634563   -1.73685263635749
O           1.89796938378526   -0.04763604329438    1.71651538644772
H           2.66160290840245   -0.36580952059307    2.19901571290067
O          -1.84403395788171    1.47866453280227    1.15361658362392
H          -2.35229156029376    2.02381556947885    1.75476687816455
O          -1.95417903395353    1.22604033678571   -1.59696235152200
H          -2.06769050315430    1.31702683024678   -0.63360622120771
H          -2.25200534449069    2.04535133551379   -1.99604007096929
O          -0.59783864752159   -3.47830668171868   -0.08783580914750
H          -0.25251013971108   -2.85587823641262   -0.74999932121327
H          -0.72324330342573   -4.31068910590413   -0.54429139593388
O           0.62506489083916    2.27549786900032    0.99242561489991
H           1.17610302365326    1.62556460182635    1.45933163016261
H           0.79312036442206    2.09740293380019    0.04981388755378
H          -0.91766786928783    1.86432163099970    1.13193786389563
N          -0.52672310319376   -0.94163151994607    0.97666883559980
H          -0.86078856545368   -1.88326999428507    1.18464115700124
H          -1.23779870021071   -0.21499113396779    1.13337585755275
H           0.34461614889712   -0.71792958944470    1.49670419074001
H          -0.24392344192480   -0.97337696308923   -0.07884435963449
