    26
        -50.43987370  Gyration_radius:  2.61945050074 Dipole_moment: 8.069
 S          -0.91230646608085    0.09689410865302   -2.20410457867988
O          -0.09747430593066   -1.03145741411839   -1.86542497221292
O          -1.80497909540637   -0.00754198574937   -3.29684648415225
O          -1.70067916103477    0.52243926605459   -0.91120015500385
O           0.00029300483197    1.33894065620349   -2.42100779969010
H           0.60545412552861    1.37796937387431   -1.64121183455949
H          -1.56828662013802   -0.17171271491895   -0.19226482772652
O          -1.35607654007102   -1.09171201882338    1.05539122116353
H          -1.96843649994356   -0.87593660433015    1.76067734025203
O           1.34311415474401    1.70902481574651   -0.19452860146410
H           2.11170708194586    2.27400796778125   -0.29337280452765
O           0.10092344551720   -3.18043687774723   -0.23569798838596
H           0.14449281371461   -2.58034260916361   -0.99799508494294
H          -0.59434195998335   -2.79873831322063    0.31379498209806
O           2.27923357664751   -2.50924210998548    1.14434145231025
H           1.55336659116489   -2.82915765609848    0.55390863386723
H           2.45450378229826   -3.22151262770231    1.76033469313889
O           0.97614285205962   -0.26505082178486    1.75509528590767
H           1.54872534263050   -1.05279201732704    1.60818451574617
H           1.22350527655852    0.36336556238581    1.05965415482002
H          -0.44065364934575   -0.78358809956041    1.36485095637048
N          -0.86015550735551    3.03686571386604    0.42702821562888
H          -1.45085983101940    2.34566648787236   -0.02924368613488
H           0.58545664880731    2.28059518361728    0.13068935711248
H          -1.00663422420810    3.92363347748366   -0.03832827431148
H          -1.16603483593892    3.12981926699734    1.38727628337769
