    26
        -50.45147869  Gyration_radius:  2.46503576899 Dipole_moment: 6.097
 S          -1.09854496108091    1.80274895631550   -1.13760609015906
O          -1.34520844554572    1.18817575439302    0.15016253893537
O          -1.47325179458650    3.16238909918654   -1.25933955386457
O           0.40588102828346    1.59751949397639   -1.48022941262195
O          -1.75818094892783    0.95218707515232   -2.23399806007524
H          -1.31362807152483    0.05502206027275   -2.15490342359581
H           1.00080491837098    1.68779205375921   -0.67240349229161
O           0.04198410733635   -1.80494437487672    2.07903520220581
H          -0.23310610379244   -2.31008355745110    2.84505428031984
O          -0.50447016773106   -1.28174638139418   -1.99337589694750
H          -0.16951615445936   -1.49807518452681   -2.86533206237032
O           1.93110279954359    1.73731812896326    0.57776885476767
H           2.15339369229348    2.64776979046415    0.78038498949403
H           1.34463937819686    1.41580812013819    1.33304985782939
O           0.22563103103737    0.91410323715943    2.32854019841508
H           0.25473651773599   -0.06202652942029    2.36908707895440
H          -0.51666475045386    1.11389216153992    1.73296323296453
O          -1.97306922623074   -1.41693184152795    0.41237386636255
H          -1.70348086501065   -1.71497721173589   -0.46407166895444
H          -0.75562762922617   -1.73410856903033    1.49191385139554
H          -1.90828968311476   -0.44420375437808    0.37642455832446
N           1.57175195935496   -1.20547149383786   -0.39832235470657
H           0.31178688054108   -1.20344949468489   -1.38269298487048
H           2.33152709696973   -1.82198423725255   -0.65787541726726
H           1.95124994077598   -0.27228478317363   -0.28734348077105
H           1.22854945124176   -1.50443850803717    0.51073536853216
