    26
        -50.45195835  Gyration_radius:  2.47881199216 Dipole_moment: 9.588
 S           0.66164314023775    1.35786029745526    1.76121809597699
O          -0.43114019664943    0.45323169128539    2.14286243739050
O           1.29576227007782    2.02169492898652    2.84487115693854
O           1.58203394742399    0.61091281954567    0.86904592279774
O           0.00604150197669    2.45625632946831    0.82739106999300
H          -0.19918987898375    2.01888032043163   -0.01497663947370
H           1.01916906304397   -0.77184194536567    0.85894481499777
O           0.56141596058363   -1.68308754334294    0.82578643988031
H           0.25059837204024   -1.79186050454898    1.72864002059889
O          -0.43867813746741    1.34912918648655   -1.64930271954394
H          -0.61529824875734    2.07615923277813   -2.24680020959089
O          -2.83241023117354    0.42158642183610    1.31269424294915
H          -3.36408239819198    0.10361346892939    2.04355823802228
H          -1.91918874146474    0.58318934386783    1.69643348274212
O           1.64777371617349   -2.17131462777874   -1.66081987151115
H           1.34509531271885   -2.16885205465996   -0.73896514556422
H           2.49198428137152   -2.62510445784419   -1.66870897743702
O           1.98981204954634    0.56855444858438   -1.73910558043309
H           1.93582265929320   -0.39490858808158   -1.88019821353270
H           0.53369956217891    1.08742729935055   -1.78170511695888
H           2.07399731186041    0.67811010786006   -0.76758227656996
N          -1.53419760493941   -0.85810479340447   -0.57222841962173
H          -1.95882054391699   -1.56308302985031   -1.16455268998942
H          -2.21075968925769   -0.45121777460044    0.13786989699727
H          -0.70427353837764   -1.25215258356993   -0.02809077865970
H          -1.18680991934270   -0.05507801381817   -1.13627918040286
