    26
        -50.47229277  Gyration_radius:  2.48042808261 Dipole_moment: 1.998
 S           0.45512479446804    1.99520038959301    1.00429253705940
O           0.20383160114157    1.68431785977060   -0.39980308393865
O          -0.61028388380198    1.51369511569058    1.85935043456005
O           1.77952520551535    1.57594324312154    1.41986532387032
O           0.44366527266061    3.57521885680994    1.12628956855959
H           1.32249116870372    3.79205443073948    0.83383333863177
H           1.80332246884024   -0.02368570969193    1.38703188822350
O           1.83610404198344   -1.00879115756731    1.28017314605801
H           2.36336629717519   -1.33448674345541    2.01129584071640
O          -0.17903906532556   -1.67331238902300   -2.14994923983116
H           0.02717689836446   -2.15445259216670   -2.95147065569304
O          -1.83002879311473    0.49367263329301   -1.70007589172237
H          -1.35498320915973   -0.28265423958305   -2.04767356223885
H          -1.12764240256689    1.09774537480853   -1.39051127575228
O          -0.45205043864933   -2.30537808861259    0.51519004789989
H          -0.37888400993032   -2.27477307260239   -0.45591203018571
H           0.37850507626074   -1.91654767239628    0.84923999024816
O           1.81892922666219   -0.18024200028627   -1.39616971282152
H           1.31429321164279    0.60566275499398   -1.09915648340324
H           2.13036213980982   -0.59167526235446   -0.57821432923165
H           0.62439413970475   -1.11540702336954   -1.93927640662073
N          -2.14565833001385   -0.30256420171682    0.77946631847865
H          -3.04995333285130   -0.44242661573728    1.21429362183559
H          -2.22357536857565    0.01354789942335   -0.23471513243110
H          -1.59128209497396    0.44747905213990    1.28087724558991
H          -1.55771061403515   -1.18814082191865    0.78172851228543
