    26
        -50.45195835  Gyration_radius:  2.47877784098 Dipole_moment: 9.588
 S           0.41742849314332   -0.59829554092593   -2.20251450641063
O          -0.09302495131915    0.77479265512832   -2.09163775314350
O           0.94562743613016   -0.93994460390130   -3.47587195638598
O           1.34066173131115   -0.83527872336077   -1.06564277481006
O          -0.82035879199527   -1.54322918146792   -1.91385736206891
H          -1.00864292308805   -1.47296723844431   -0.96379352472319
H           1.40864682182008    0.49108639562890   -0.38359981830192
O          -1.30715687290880   -1.54839657338948    0.79175907772858
H          -1.89422926861970   -2.28508725809310    0.96321385050089
O           1.37067042953543    1.39419896485792    0.08959903458628
H           1.34012689663926    2.01231825818306   -0.64564184459055
O           1.98134956699080    0.19272002294840    2.49486957443210
H           1.91680683424280    0.72931253071565    1.68904812767630
H           2.91263848679349    0.14613372234993    2.71672647798824
O          -2.38775758591090    1.56130247030270   -1.33544365290773
H          -2.56575161088662    2.36995727746512   -1.81745293444478
H          -1.56141604963121    1.17594636731414   -1.75498307484886
O           1.14150221772293   -2.11695851683494    1.23391749420349
H          -0.36890578724059   -1.85692116914589    1.02857589308573
H           1.38599205977025   -1.82207257497594    0.33045953034248
H           1.45815350689215   -1.40835844250404    1.82443531283465
N          -1.13115895260271    1.13174803963672    0.92552977692380
H          -1.73950417797356    1.43911261746014    0.11127654654150
H          -0.11482237949205    1.28357234432594    0.63548480207057
H          -1.34839744998490    1.61900944068093    1.78780371739871
H          -1.27847765933726    0.10629871604031    1.02774000631899
