    26
        -50.46151589  Gyration_radius:  2.636128338 Dipole_moment: 5.362
 S           1.65986447465188    1.68997523282104    1.16245377327008
O           2.77962874793431    0.96654749115025    0.56107107102224
O           1.22293606547717    2.84036352774156    0.43278093466415
O           0.57231925458519    0.74365218861263    1.46273514669833
O           2.18574637403681    2.19206474981048    2.57440496098122
H           2.53128761145967    1.39939461577237    2.97326778180655
H          -0.49912065317092    1.20401841989434    0.33860670486791
O          -0.95679737334155    1.59313184024938   -0.44525029961753
H          -0.50509465199809    2.44421202756064   -0.52105957075993
O          -1.95531281221195   -1.91658982575569   -0.51283814955146
H          -2.54361879896211   -2.67087255094227   -0.46437085400774
O          -0.24195942602194   -0.40027910696111   -2.12166435431479
H          -0.85199991015645   -1.06589339978409   -1.76719835435657
H          -0.49250487246605    0.42912872710757   -1.66223531486061
O           0.26004629428571   -1.89628906320995    1.17007900976712
H          -0.57440958520052   -1.96532846952151    0.67256310916564
H           0.29535148225714   -0.97161475884758    1.48648692791113
O          -3.33762601668234    0.34933886763617   -0.25029487867559
H          -2.55774455536317    0.93859792513637   -0.21708250310693
H          -3.85834679062832    0.63970244203845   -1.00121122980763
H          -2.50835366778814   -1.11726052759685   -0.33932647506527
N           1.89892228448785   -1.10211321544594   -0.72683760206124
H           2.32400786794989   -0.24058071357769   -0.25764982581622
H           1.36618602569487   -1.61590549631985    0.03566793457598
H           1.16870593631740   -0.79348917060673   -1.42841627182161
H           2.61788670481692   -1.67391175695554   -1.15468167089413
