    26
        -50.45207850  Gyration_radius:  2.41626675224 Dipole_moment: 10.175
 S          -0.88510355842918    1.75667102841234    0.70335413010807
O          -1.54252444539633    1.51757293695931   -0.57020620011114
O          -1.29445245524124    2.89087878684386    1.45307170122782
O          -1.22374790848864    0.46751809009970    1.60027837709239
O           0.58914498429460    1.67228465522085    0.53171654083584
H           1.41600252340216    0.94752225831309   -0.53759337610227
H          -1.24199969509014   -0.29083836515367    0.99349771652274
O           2.01307087424898    0.35849770884828   -1.10025747049238
H           2.83572521247168    0.84157116084058   -1.19172563573113
O          -1.14944743993294   -1.85203661074497    0.17022351541900
H          -1.80040409774462   -2.44354971371462    0.54993399299955
O           1.34736023001137    0.34025078474289    2.58231645861353
H           1.12941105698553    1.01140555260742    1.87627191411044
H           0.55587287170321    0.31476120265799    3.12750890150619
O          -0.21928995135826    0.67038542112714   -2.82781338347856
H           0.66358414751825    0.47390049124239   -2.49306937100618
H          -0.63905628675203    1.21351206842528   -2.13696076042287
O          -2.28909449779377   -0.72809776797099   -1.80534193487787
H          -1.62854695487064   -0.52496259759864   -2.49439583007536
H          -1.57709507547225   -1.47933471016299   -0.67857666113838
H          -2.37635690872703    0.13295329062500   -1.35046907685671
N           1.47534904064949   -1.49048068354418    0.72178196077958
H           1.45290206059184   -0.84124765318106    1.58371669490361
H           0.49861628769972   -1.77207872145995    0.49924351595805
H           1.81971375689343   -0.88875403681825   -0.07511474035816
H           2.07036623881857   -2.29830460651937    0.86860904051952
