    26
        -50.45207855  Gyration_radius:  2.41624987825 Dipole_moment: 10.172
 S          -0.21826329072721    1.65140142286816    1.26038627223362
O           0.86059406062930    0.88732878206030    1.86339953434397
O          -0.59329994756027    2.86892157839306    1.88734675813987
O           0.30808777182743    2.03497306568512   -0.20829655726093
O          -1.37375707484771    0.75800610983923    0.98375226398056
H          -1.41649100965904   -0.76168094991565    0.78038255230800
H           0.84230955943326    1.28258907802571   -0.51194078953668
O          -1.48947169682617   -1.71965612287580    0.46903168134203
H          -2.35717154931160   -2.01424658273207    0.74976872696256
O           1.68919872000137    0.00191795793051   -1.38658675492117
H           2.36072568260599    0.39665228642310   -1.94433790687631
O           0.84352950105967   -1.85318884874541    2.08269680425371
H           0.06713104075444   -2.10138651425887    1.56721134523118
H           0.74291050701496   -0.89942152584770    2.25237833256215
O          -2.13883293279699    1.48561078343062   -1.34873670479897
H          -1.63927717888361    2.29360185453798   -1.49680712330080
H          -2.00079835811230    1.29414974441141   -0.37887439951167
O           2.84124813292698   -0.56042312371481    0.80927297538102
H           2.17751820463651   -0.31144730945549   -0.54647336384247
H           2.40649222379913    0.16490114913843    1.29971583744449
H           2.42432513116776   -1.34882021485341    1.20563783585732
N          -0.86464372374513   -0.72643307061843   -1.90802095722701
H          -1.14361154271541   -1.29301435295387   -1.06135334035318
H           0.15292649086005   -0.52470663152892   -1.82580670464370
H          -1.07846790000436   -1.21065466345958   -2.77290089444255
H          -1.40291082144228    0.20502612809302   -1.82084544334044
