    26
        -50.46107759  Gyration_radius:  2.47880809549 Dipole_moment: 4.229
 S          -1.22039370793718   -1.58931070200167    1.00489281739848
O          -0.30099018848457   -0.47494756449140    1.28656111208817
O          -1.56984717192151   -2.39262483956243    2.12839289449233
O          -2.58879652023120   -0.83265507681444    0.57259492336067
O          -0.77542766450218   -2.28538875926751   -0.18763310676122
H           0.76112496312252   -2.22043103125069   -0.73293885917987
H          -3.20672010552090   -1.30745774119845    1.11751465009143
O           1.66657366697215   -2.03369670754689   -1.08099461984165
H           2.09304157875371   -2.88666514239332   -1.17038440621256
O           1.91037975579058    2.00414397447609   -0.29362627512853
H           2.69843370183992    2.50378702367059   -0.50704469532713
O          -0.69026488075158    2.24306831988714    0.99783285991617
H           0.19464931371690    2.46288243992959    0.67963243909914
H          -0.61790780373139    1.34414934555816    1.35660335408321
O          -2.29878169912111    1.50023458526825   -1.03254740048562
H          -1.89311993947785    2.01381131288170   -0.29943352192243
H          -2.76821569091643    0.77792774789875   -0.59700077824066
O           2.40121229464765   -0.27676574747898    0.90730414081580
H           2.35632149056293   -0.92613080176595    0.18073068879574
H           2.20724229825852    1.21600532008910    0.23931348658050
H           1.55502631040071   -0.37712428714983    1.37102656071458
N           0.02471545018726    0.30262366767337   -1.22444579943916
H           0.77124177551345    1.02238156505500   -1.17339885054506
H           0.27494536264459   -0.44960817065598   -1.86240802037882
H          -0.07421730796994   -0.09864801490458   -0.25221032691232
H          -0.91022528183025    0.76043928410150   -1.42833327704488
