    26
        -50.46107765  Gyration_radius:  2.47871713001 Dipole_moment: 4.220
 S          -1.56305428036043   -0.35088415694646   -1.56780418084088
O          -1.31938247896638    0.36670379713369   -0.30583629164574
O          -2.90565494049133   -0.31329279827628   -2.04281004194341
O          -0.69992999059453    0.50108853975220   -2.64473180186585
O          -0.92353325378787   -1.65166575429311   -1.50807192948308
H          -0.55030188702457   -2.39446543476773   -0.10444082441226
H          -1.35854500217122    0.60516818304513   -3.32265381010474
O          -0.23150964257190   -2.72666992861195    0.76965771822289
H          -0.61662651101157   -3.59740755744686    0.87441988592841
O           1.10035517870044    0.80961605039425    2.42820314294652
H           1.46606778518365    0.84209518063762    3.31218757719679
O           0.33196652835147    2.52059728062389    0.20026959864273
H          -0.43602808310776    1.95953788097011    0.00690131152943
H           0.64151108315437    2.23807713790875    1.07039980828527
O           1.83486632725060    1.45173636452378   -1.76509572990314
H           1.13464199599002    1.25237231216112   -2.39894216853164
H           1.43118427561173    2.09221449868474   -1.13860184342370
O          -1.11838050347912   -0.58172799229304    2.25246791126432
H          -1.49769832587378   -0.14341003772309    1.47455380512814
H          -0.81675205091193   -1.44713176280683    1.91855912233256
H           0.22193949595818    0.34448659819928    2.49922760107374
N           1.20322812765966   -0.37982687522133    0.00007491663517
H           0.17350800841987   -0.17897460580043   -0.12529687918078
H           1.46066791488600   -0.03074101585414    0.94312757138238
H           1.34997429626918   -1.38379208363835   -0.07845105811213
H           1.68748594292675    0.19629618964441   -0.74731344116692
