    26
        -50.47071349  Gyration_radius:  2.41588800034 Dipole_moment: 4.148
 S           1.34256087930983   -1.50287711461531    0.22256978114756
O           0.56098360837348   -1.75626813250318   -0.96367537602253
O           0.57674897449282   -1.52341395721629    1.45753475223540
O           2.38258626367880   -2.69139936152068    0.33395213994896
O           2.13409321172874   -0.27628221547235    0.10365396436519
H           1.68964625581954    0.76142340500759    1.38592254632785
H           2.70757536428656   -2.59417080136274    1.22244187070827
O          -1.99604826796637   -1.07096713780056   -1.25576964485278
H          -1.12863736313500   -1.52416182943533   -1.26199348955443
O           1.12841841363824    0.99740533808222    2.15220179563430
H           0.79356447627321    0.12846783992287    2.42090780097771
O          -0.99557652682473    2.05163138565470    1.09109575748015
H          -1.19013463844265    2.87867299742662    1.53321642538465
H          -0.15272360100161    1.70551462710033    1.50884499549790
O           1.38496280783680    0.50668903901405   -2.26595692117810
H           1.17586270433577   -0.37838766611260   -2.58524671847858
H           1.80332315956031    0.32904739028297   -1.39164820975765
O          -1.97408400170180   -0.64428788983026    1.35164926860989
H          -2.23191502995382   -1.03524113931100   -0.29828280341302
H          -1.10393711852844   -1.07058169870230    1.47321459247367
H          -1.81501542056594    0.30677111417810    1.41601339804325
N          -1.02621813618295    1.31050563632268   -1.53882853611056
H          -1.52861299522368    0.34267120664737   -1.48797165565613
H          -0.03337966613550    1.10342037862474   -1.86202534925333
H          -1.49532966067993    1.93807322089791   -2.18203769306021
H          -1.00871368300035    1.70774537475222   -0.57978271150794
