    26
        -50.47033461  Gyration_radius:  2.4768181387 Dipole_moment: 3.218
 S           0.16476507664441    0.52116447778260   -1.73065835179567
O           1.32468393049872    0.81104668060642   -0.87084841548412
O           0.18923506537924   -0.82275249687237   -2.24212843896921
O          -1.06513664490926    0.81276797834325   -0.98831794186742
O           0.22023617472965    1.50587933172281   -2.93702052591776
H           0.24032326739113    2.37614598328515   -2.49290041968062
H          -1.95372416173384   -0.54798221547878   -0.52307747811086
O          -2.38576957376690   -1.32972244061833   -0.11475392853961
H          -3.03751586028646   -1.63124000919929   -0.74944347560221
O           0.87794446352518   -0.05429890014038    2.98048028166360
H           1.32057693520217    0.72773275457234    3.31348982616837
O          -0.06125853480871   -2.70395367572700   -0.39069035594451
H           0.06140939103822   -2.21865750805672   -1.23312576515093
H          -0.94669564891793   -2.41772129098772   -0.09315818540957
O           0.31604761423042    3.27507214741676   -0.96881599410224
H           0.88621470703222    2.53687775183572   -0.69264678400864
H          -0.54598887967129    3.09724053316511   -0.58083982486206
O          -1.26672849130102    0.77234541656054    1.67503470628085
H          -1.94980022370344    0.09629784400619    1.71900512087175
H           0.03569830282015    0.26537384624264    2.56944071971228
H          -1.11200586365333    0.89552723979635    0.71639979301701
N           1.76026278931371   -1.20562499230082    0.74104376703183
H           1.04356417152571   -1.92491158876662    0.39708228123204
H           1.68970344451180   -0.38951481065321    0.06748576118921
H           1.49836966318597   -0.84999957040438    1.69534655116622
H           2.69558889574218   -1.59709248611440    0.73361706712202
