    26
        -50.45316406  Gyration_radius:  2.76370576027 Dipole_moment: 6.490
 S           2.46385374326985   -1.42060044061795    1.05078575123098
O           2.35929634742967   -1.61273868868215   -0.39696559517403
O           3.11523171564823   -2.47409059943531    1.75626446775146
O           3.42543671962110   -0.12202296062404    1.21995901033595
O           1.18614554218414   -0.96755599899283    1.59751215788697
H           1.18067218862474    0.64082512671090    1.31341994469703
H           4.25556268934212   -0.54506715834859    1.41234570845215
O          -1.82485125880546    1.40864563747975   -1.90925125799889
H          -2.42185803447561    1.99320656402969   -2.37718254195861
O          -1.35861445516738   -0.98205160242247    0.74102973173792
H          -0.55709529504768   -1.19615585600297    1.25237496139422
O           1.17459162337308    1.54799197694358    0.91686656801452
H           2.07122121437810    1.86674990603118    1.03544105314302
O          -2.95604172461401   -1.01136670752904   -1.46246165351795
H          -2.46299969953247   -1.23582101726326   -0.65347257651057
H          -3.88287947465675   -1.13450171178237   -1.25243794911930
H          -2.28181228433180    0.54351211299039   -1.83929702019273
O          -1.62844926836032    1.66921773008262    0.86807686727559
H          -1.59347895984960   -0.05966932002939    1.00124853433401
H          -0.71357622391815    1.89290497450692    1.08475719619594
H          -1.70527424277232    1.76773282351968   -0.09647071649957
N           0.42505674253191   -0.10620463853626   -1.09180786368103
H           0.17329399426554    0.05626816652071   -2.06169397889535
H           0.67663995930199    0.77710323723614   -0.61081793445528
H          -0.37978114090474   -0.51718804582348   -0.55734576586543
H           1.25970958251431   -0.77912349998211   -0.94087710857375
