    26
        -50.45004644  Gyration_radius:  2.53787725499 Dipole_moment: 6.012
 S          -2.34919234422535   -0.54978593193665    1.02023475291941
O          -1.14246337018723    0.17091163514874    1.36257777462524
O          -3.40576523376524   -0.53739204549019    1.95832968377972
O          -2.85706706935157   -0.02277317302802   -0.34760083694243
O          -1.95897577375553   -2.02161097554465    0.72014052016409
H          -1.06331072430848   -2.06525548221103    0.28055918909434
H          -2.15147782497351    0.46504237276577   -0.86092518211996
O           0.42223244678861   -2.23391397903415   -0.28602175973725
H           0.67348327061801   -3.15800115116842   -0.24569004454962
O          -1.14614624564909    1.23830876616261   -1.82566578454396
H          -1.54707740852905    1.29850002374314   -2.69423940766945
O           2.38113392468875    1.37990529815733   -0.18757049184440
H           2.96356323079771    2.07870514196854   -0.48738543163786
O           1.02556635292875   -0.15218493696509   -1.98955984022401
H           0.82614953291276   -0.97958509309366   -1.52262310262409
H          -0.30579356787820    0.69190121017700   -1.93453747854527
H           1.62932179249089    0.34257211749112   -1.39889071782850
O           0.02782674460527    2.41466743829498    0.41642135174263
H          -0.39247998548520    1.70289318000836    0.93128858025434
H           1.53869872368029    1.82442179199284    0.09809891934054
H          -0.43361838471986    2.39397597060624   -0.43210673856841
N           1.53825788618141   -0.84067592794729    1.57241362538421
H           0.67183919294352   -0.37192408734626    1.83038262523407
H           1.98531277384620   -1.18000586821578    2.41336795886132
H           0.93046169703672   -1.74521150432448    0.46547510341637
H           2.13952037330580   -0.14348480020688    1.14352672201872
