    26
        -50.46788075  Gyration_radius:  2.39861612015 Dipole_moment: 5.649
 S          -1.13895311249399   -1.40115207617974   -0.00380123435000
O          -0.30606906248915   -1.29012706320388    1.21704533274820
O          -1.24695226699853   -2.75986543751492   -0.46183964466652
O          -2.55725179018840   -0.87902180201179    0.38215620777717
O          -0.60644538120989   -0.51048761131034   -1.02905798529601
H           0.56756635047599   -1.94371668912976   -2.62206952658581
H          -2.46205258595881    0.08698011469650    0.56154915461243
O           0.91924551000676   -2.56019376916438   -1.97311767161711
H           0.12671220539802   -2.82667493337140   -1.45096777234718
O          -2.25703882355000    1.74660406737044    0.73754782239714
H          -3.09739226564813    2.17120540376053    0.55738003635965
O           1.87715071885979    1.62192507397348    0.19568787392678
H           2.56951248073321    2.18566210255076    0.54303404392431
O          -0.56229669176187    2.09142251963400   -1.21363211644444
H           0.33475358990172    2.23744557398702   -0.88521242240672
H          -0.60631019051006    1.11703305577083   -1.33494916351462
H          -1.65122189640217    1.98002929774049   -0.02554617070733
O           0.12182896493581    1.17064243331387    2.07617672540895
H          -0.05528189395574    0.21925523889335    1.90598149242779
H           1.21622447509236    1.50314113643632    0.93862524680231
H          -0.72147767337270    1.60539928126356    1.89607953389928
N           1.94879252182031   -1.11043193002358   -0.00548097970132
H           1.67529745309313   -1.62922774104504   -0.89207056776742
H           2.78291074769166   -1.50529821488393    0.41655990709878
H           2.04319545396793   -0.08508585555132   -0.15409704897246
H           1.08555315256895   -1.23546216603462    0.62401892698641
