    26
        -50.44980669  Gyration_radius:  2.56465488247 Dipole_moment: 6.679
 S          -1.57626700003223   -1.61641313302642   -1.48787051971866
O          -1.02022622126358   -1.46651352661662   -0.12282096151079
O          -2.14443520934933   -2.90092423309966   -1.73495769747736
O          -2.80088563113016   -0.57754127396338   -1.51963971945125
O          -0.62173912167200   -1.11495541769991   -2.45361305470132
H          -0.48745509057561    0.42259972748074   -2.22849976237581
H          -3.54409497789652   -1.16414301117002   -1.43163515187820
O           1.46465530814518   -1.35127772807848    0.06845741920280
H           0.44887054066497   -1.47209619661249   -0.09649664420167
O          -0.36581069491096    1.39660212770562   -2.04215191552212
H          -0.48052656633988    1.83619988361907   -2.88558875519899
O           0.81698174442469    1.84955776319629    1.73122232887577
H           0.70483261576284    2.75979389129982    2.00653884579968
O           1.89687842086216    1.03005932627998   -0.64096744142369
H           1.71244973694565   -0.41668211869211   -0.32832451294064
H           1.15501605319051    1.24086306236324   -1.24767527676127
H           1.66868339135075    1.45063216458540    0.21082757570493
O          -1.35998754823281    1.09444243932937    0.52163891302319
H          -1.26404878781389    1.44248176726871   -0.37803164633212
H          -1.35521728358128    0.12387580953591    0.39713371935421
H          -0.06034093848466    1.56900274086317    1.33814405664925
N           1.45954129254415   -0.82732199944046    2.56108801710545
H           1.31515758534369    0.18163514457389    2.52433028224441
H           1.52753083893461   -1.21204363797158    1.12231951474041
H           2.26748581272719   -1.02582804692546    3.13537897245484
H           0.64295174052858   -1.25200555465235    2.98119341453481
