    26
        -50.45911143  Gyration_radius:  2.436158252 Dipole_moment: 3.762
 S          -1.51081133865761   -1.11410494977701   -1.07573268174178
O          -1.73453904526340   -0.64766198255994    0.28429764073771
O          -1.11012136800901   -0.03336768708333   -1.96000693192091
O          -0.62123541172662   -2.25585432633658   -1.12039362945713
O          -2.90532996949740   -1.62871346202168   -1.62467318913998
H          -2.91582913422275   -2.53337546658778   -1.33058368006170
H           0.80515687752257   -1.46725590250549   -1.36752835895159
O           1.63263936545690   -0.95462467411189   -1.50243950029111
H           1.69805766195410   -0.83151302887241   -2.45153224670498
O          -0.49015058585398    2.23154036859049   -1.07445360097792
H          -0.81567064222346    1.36632111803376   -1.52377512428895
O           1.16604182033659    1.09486918683008    2.11401346636213
H           1.64967309344208    1.19390473871189    2.93415795427890
O           1.83419768375028    1.51950229208269   -0.48043383965675
H           1.84745985016601    0.60007189860266   -0.83161576491398
H           0.53750245909700    2.04352900260637   -0.90077228626560
H           1.74901251531727    1.43817151463318    0.48976251684806
O          -1.33445122999906    1.77764484581342    1.23777197323685
H          -0.91429355175254    2.19040669271534   -0.10846640477549
H          -1.63991347065296    0.87266541868387    1.00448136946000
H          -0.49586782123118    1.64874205457967    1.72082230232558
N           0.72411218650853   -1.41592440595016    1.52224148860702
H           0.66440526536904   -2.16517083264803    2.20028768980002
H           1.35079659094477   -1.71911397598346    0.78577289698322
H          -0.19697620637462   -1.31486075699732    1.09445538881658
H           1.02613439569555    0.10417233966338    1.96434252165286
