    26
        -50.46108164  Gyration_radius:  2.41713301549 Dipole_moment: 7.904
 S          -0.35113927552758    0.73123129959436    0.44578681580174
O          -1.51462093956254    1.06595145744083   -0.33948605933559
O          -0.65024110984801    0.33378243914235    1.81955170603166
O           0.34519105798245   -0.52997743066302   -0.16232814900980
O           0.67718238823002    1.78274201506629    0.41803847885302
O          -2.44463205063893   -1.02577503543252   -1.80204324071250
H          -2.37995773135689   -0.14996016941250   -1.38701857380762
H          -2.39456108099128   -1.63063665658544   -1.04528246782869
O           2.59649232357239   -1.44004203173230    1.02218374643434
H           3.24096709500122   -1.60649021330186    0.33204106438476
H           1.73745206243175   -1.32164511017692    0.57074139697576
O          -2.24814999745060   -1.69120505280587    0.90535256273647
H          -3.11413566073792   -1.46932777020102    1.25417758988107
H          -1.64228692812550   -1.01760853413019    1.25290217195562
O          -0.02285309067550    2.04147605837225   -2.32887405020053
H          -0.77443175918231    1.88460816070168   -1.73116321622610
H           0.67925009021178    2.33135272453799   -1.73847858836314
O           0.03493149726629   -0.63154801451321   -2.62903936948849
H          -0.91978134817559   -0.89009007065638   -2.57770130441636
H           0.04862937879637    0.33142822427443   -2.81819399509712
H           0.25538222094946   -0.60434338572993   -1.21541330729797
N           1.81744008906627    0.70673688576167    2.39610466651555
H           2.25001826650721    1.16638563023756    3.18966404610203
H           0.82610407314285    0.39298289669494    2.56960821878233
H           1.59062332986690    1.35313687777379    1.55930823673253
H           2.35712708925538   -0.11316519426004    2.03956162059587
