    26
        -50.46596145  Gyration_radius:  2.46786725176 Dipole_moment: 2.850
 S          -1.12006858884310   -1.46649179292548   -1.17724363007313
O          -0.07698784167662   -0.83002108843467   -1.96070668608216
O          -0.61837772461331   -2.20569038627306   -0.03605669411409
O          -2.16153605682349   -0.51529223168388   -0.81078594523008
O          -1.79436108847812   -2.53921001500125   -2.12757548911211
H          -1.91153855354767   -2.04275938151090   -2.93028404483777
H          -1.46030593304437    0.97140578318918   -1.18502536172886
O           2.32140636441343   -0.05248104738594   -1.05556396984401
H           1.53564701147483   -0.33829334836989   -1.56496644793890
O          -0.99597441494009    1.81640196438034   -1.35535373836476
H          -0.56699259369648    1.69080361635273   -2.20444394074092
O           0.45786731589666    0.73998514518585    2.47957893902397
H           0.37339492847227    0.91737523197700    3.41708761492728
O           1.28433524058113    2.10066819868356    0.10750996754725
H           2.10259830847506    0.85707103964739   -0.73973309201800
H           0.43157996150260    2.11987384755004   -0.37125011278064
H           1.08320453682613    1.80549822764248    1.00460070977820
O          -1.94670540820365    0.83532392544349    1.45608018042869
H          -2.09563527165547    0.18931365152235    0.73302318868496
H          -0.46983622142753    0.73371684878332    2.11503276621895
H          -2.06823189058949    1.69372421995386    1.04010910738411
N           1.56016409447229   -1.31110932824763    1.06116294495687
H           2.03505630422893   -0.82363479470846    0.21071522833903
H           0.68753020907653   -1.76438479068037    0.65970604372910
H           2.16124319174783   -1.99834428846168    1.50046714553940
H           1.25252412037575   -0.58344920664337    1.73391531630155
