    26
        -50.45426782  Gyration_radius:  2.47588402786 Dipole_moment: 7.664
 S          -1.31939540094526   -2.02409972759407   -0.22697267348579
O           0.11092172948243   -1.60074608777969   -0.30570077412398
O          -1.48792582444721   -3.16870584683631    0.60017239561841
O          -2.11200322140215   -0.86153027159234    0.15729894968674
O          -1.72569415134521   -2.37870265459684   -1.70409556086241
H          -1.72026879336790   -1.53790809202816   -2.17181726834745
H          -1.78816254467441    0.17021033155263    1.25525100881088
O          -0.61310333243369    0.23381186438626   -2.08571190337711
H          -0.45069491443464   -0.38781256199991   -1.35299890490783
O          -1.47658402438622    0.81651341831548    1.95834047360532
H          -2.18977901793026    0.86595033925371    2.59616212789733
O           2.07271348839273    1.64753056804568    0.26668544423550
H           2.59845250426788    2.44104735144807    0.36992985615290
O          -0.39569517504925    2.23765014789138   -0.27292273301585
H          -0.92477286019403    1.93794203307937    0.47894527108546
H           1.15043033680689    1.95005476584329    0.00538847170495
H          -0.62748807076652    1.64069071890154   -1.01561488748627
O           2.10510929695407   -0.27654798215427   -1.87822894777669
H           0.24072816572392    0.27611425470786   -2.54488222761553
H           2.28581508004620    0.39451214627463   -1.20684588387847
H           1.65965086740424   -0.99845848215476   -1.41781273117222
N           0.94309666361331   -0.27788997098266    1.73250287006850
H           1.56212404044225    0.45553739265014    1.31780175919443
H           0.63596388534789   -0.92190908850917    0.91759285379006
H           1.40431796911688   -0.81010099181327    2.46141320354795
H           0.06224331380088    0.17684642579862    2.06611980069190
