    26
        -50.44033173  Gyration_radius:  2.68448446983 Dipole_moment: 1.940
 S          -0.76627744246725   -1.33375591965249   -2.16238565514496
O          -0.74904126810194   -2.67143611190998   -1.67086823804379
O          -1.71668657470073   -0.41297159176221   -1.62053356328706
O           0.63662514373848   -0.74327127159818   -2.09006112639462
O          -1.05468432698467   -1.40414826499095   -3.72047637232351
H          -0.67167789432631   -2.21564189887075   -4.04729102411483
H           0.50631730231850    0.31290176655713   -2.16970414288187
O           0.04060059729927    1.64971018148634   -2.18571358283106
H          -0.90684966460775    1.46565296350077   -2.21142176768676
O           2.15500531305467    0.54818089823257    1.75788135521835
H           2.95871280797751    0.84696733575219    2.18480573168024
O          -1.47806302542775    0.25117957034084    1.08368871797209
H          -1.95391979993750    0.12654834571079    0.25359233872798
O           0.34660107663287    2.07542515770422    0.33624956008592
H          -0.39691578907363    1.50150992424051    0.63435521114454
H           1.14450583072611    1.61487760090586    0.64754678002460
H           0.22599474058400    1.94466322813402   -1.23671393786954
O          -0.00831879907537    1.12880583209123    3.30756230347335
H           1.43904143502235    0.62446796960815    2.42504136044532
H          -0.09712567237492    2.07925849338923    3.20243127414808
H          -0.70990949092379    0.74035267855542    2.76465255813985
N           0.28796974785212   -1.72136278756850    0.91610694800960
H           0.04751277166785   -2.19395974016324    0.05135989204106
H          -0.85349722898991   -0.52866826666369    1.11085960743783
H           0.38825919071792   -2.41957945409521    1.64165865700940
H           1.18582103978289   -1.26570666838087    0.79737713437527
