    26
        -50.45364652  Gyration_radius:  2.66227875323 Dipole_moment: 7.058
 S           2.51772804824294   -0.73695972443593   -0.73909417120929
O           2.62891519334807   -1.00447242343125    0.69635608172181
O           3.73545156139190   -0.39606784176128   -1.39337398167984
O           2.06783159699343   -2.16870273416442   -1.37271146519128
O           1.36672582722353    0.11747188876013   -1.00934463971559
H           0.04932568776976   -0.76932385380159   -1.17964599701164
H           2.89231514190609   -2.45941683658740   -1.74823787652801
O          -0.67376925127669   -1.44819546931798   -1.09434245376202
H          -0.42558421494301   -2.14803568054050   -1.70136300754580
O          -1.86527320460283    2.60320181601428   -1.26424061339292
H          -2.19778837720799    3.49454827576387   -1.15618126263157
O          -1.10047886699355    0.77632986363222    2.04431463023430
H          -1.63633725660020    1.08100075959471    2.77669460531376
O          -2.58395855679303    0.34430273957546   -0.03163393884707
H          -1.72744644252858    0.64015790871510    1.26616075463129
H          -2.47232548962003    1.17324359587336   -0.54789041280812
H          -2.10756115013150   -0.32750290971617   -0.53880327656777
O           0.37357316442933    2.34433871697216    0.15922699335590
H          -0.97579454048626    2.58563555969407   -0.83338146048416
H           0.02660361605457    1.91780163118798    0.95495492403483
H           0.84685781616697    1.64456128955042   -0.32393980542960
N           0.23963628579216   -1.47106363766021    1.43058753682352
H           1.28626627011749   -1.26191284486997    1.19139033716926
H          -0.23061144166328   -1.65455430848853    0.51353850738536
H           0.16369888656050   -2.26093369860453    2.06181970730965
H          -0.19800030312566   -0.61545206192278    1.83914024481271
