    26
        -50.45168982  Gyration_radius:  2.43179608489 Dipole_moment: 1.668
 S           1.78277848386570   -0.00698480329171    0.32111281154355
O           1.88281258383353   -0.81577709295325    1.50303753342345
O           2.97487283703690    0.38989889830990   -0.33740443919506
O           0.89732981921661   -0.76570984651895   -0.70797654364228
O           0.97731255667696    1.27248695599563    0.65240838148251
H           0.13036781917491    1.07110325273061    1.15654219263198
H           0.24570214328620   -1.39372162738460   -0.27102329846368
O          -0.92216674202659    0.54331965771531   -2.44965601003106
H          -0.48724419328470   -0.28804542223226   -2.65096664347629
O          -0.78569243905766   -2.40752227916801    0.36538709299783
H          -0.47425801903867   -3.30868840473036    0.26444822119114
O          -1.26802216155444    0.81274359868877    1.80285694927934
H          -1.69033242847569    1.64606958461965    2.01883155510394
O          -0.31805074314934   -1.61279006799091    2.77824296821333
H          -0.69867790507260   -2.18805348035479    1.34417766220544
H           0.60460022831409   -1.39112493250200    2.54474377875447
H          -0.78300396734696   -0.76521820672080    2.80702273668725
O          -2.34653877878648   -0.14765878092226   -0.31171851719514
H          -1.88832414806647    0.19698149186900   -1.11805461068277
H          -2.12099428126678   -1.08414397643944   -0.26110076681363
H          -1.75879875628854    0.45066896004414    0.99170045684913
N           1.31588926639848    2.02537117912022   -2.09903281688548
H           1.77858698455238    2.36583767349666   -2.93370277867198
H           1.96031205790705    1.40413191660182   -1.61696640036070
H           1.16784914798713    2.81808114183765   -1.48651781139574
H          -0.17630935484535    1.17874461018338   -2.30639170354727
