    26
        -50.45168925  Gyration_radius:  2.43167448631 Dipole_moment: 1.665
 S          -1.72043446714947   -0.48119457115965   -0.30244568334586
O          -2.18535742968035    0.55817627319995   -1.17696046546358
O          -2.55844471636651   -1.60138621585801   -0.06765106406700
O          -0.36443691942292   -1.00458156675998   -0.85558248876240
O          -1.36244812200426    0.13751254145356    1.07042692998913
H          -0.79072620669736    0.96039167795942    0.98060050608760
H           0.12534606807964   -0.31484841922978   -1.39825641729101
O           0.92806676547128    0.72771458987512   -2.27241598591180
H           0.83605983401103    0.52284752681736   -3.20452939730472
O           1.78900612703074   -1.82501641417828    0.80161665706612
H           1.62579155253169   -2.17706859707182   -0.07599981592016
O           0.21876924741737    2.15018959174232    0.91299990026506
H           0.36758549064351    2.50655303961452    1.79065066208135
O          -0.65243546863278    2.68171605279990   -1.67459823920527
H           0.39525866237464    1.56743625912267   -2.11544766888368
H          -1.40702333073583    2.06657677831959   -1.59060766353338
H          -0.38896946004163    2.88591121584136   -0.76669601474742
O           2.24124035717335    0.73413871372332    0.23425535134256
H           1.06156304197961    1.63949783972033    0.67027623371045
H           2.12661566652282   -0.19916285519432    0.54233590558830
H           2.17127838007217    0.70490748597381   -0.72723901376478
N          -0.59250811407122   -2.50454455046685    1.89497581503974
H          -0.85412616802787   -1.90337848240912    2.66675001417493
H          -0.69974500396075   -3.46355436305917    2.20405462676623
H          -1.27044821339201   -2.33772587779039    1.15602648224588
H           0.96052241682430   -2.03110765299128    1.30346082382071
