    26
        -50.45793666  Gyration_radius:  2.82351747678 Dipole_moment: 4.337
 S          -1.54474336658016   -2.60952479342514    0.14851220315120
O          -1.27004585457731   -2.00204139269485    1.44530729908234
O          -1.89641678814523   -3.99082172533512    0.18150184053477
O          -2.85578973753430   -1.83507441112656   -0.40892082091971
O          -0.50653315279304   -2.24340452129938   -0.82142754075022
H          -0.96721621645564   -0.78660433502517   -1.40235234199975
H          -3.52681050184924   -2.47620360293834   -0.20149235846142
O           1.87323815514393   -1.27514350561166   -0.29806065602549
H           1.02796131424380   -1.72961204953322   -0.53197552643735
O           1.75149794256004    3.03513835092698    0.04053797749035
H           1.72664717567944    3.85075266677659   -0.46079417510775
O          -1.20668548403491    0.16505502184303   -1.52366465820182
H          -2.16281089448410    0.16861484316306   -1.59951668005727
O           0.28955463243697    2.57619722567794    2.23054595340033
H           0.81708416002428    2.86219760190147    1.45107527078157
H           2.53824178980262   -1.96051306121387   -0.22993865115892
H           0.84266701564810    2.71998828171019    2.99927625270167
O           1.44729087290609    1.06224200836764   -1.74497559998667
H           1.68463678550934    2.30955320949499   -0.62337694588631
H           1.79456564541231    0.23140813030237   -1.38445609653775
H           0.51946122295361    0.88579128673974   -1.94989233553642
N          -0.07308927637506    0.22726456355946    0.95791485921692
H          -0.53600164496386    0.49348901861285    0.06768464294288
H           0.88080155847519   -0.08331113160198    0.73163720736847
H          -0.05153104897730    1.03713793286158    1.61212027400530
H          -0.59597431396593   -0.63257561213012    1.31473059636148
