    26
        -50.45793700  Gyration_radius:  2.82319757001 Dipole_moment: 4.352
 S          -0.39654289849304   -2.27885662975545   -1.96647028613693
O           0.99296101562874   -1.87026929046485   -1.79733232105944
O          -0.67128888321953   -3.04269448224159   -3.13855191042194
O          -0.69888576718529   -3.26637714042039   -0.71638949026512
O          -1.29889657954809   -1.14846303155067   -1.72068259528052
H          -1.50508559020506   -1.11691732758807   -0.09919924330946
H          -0.60762002525791   -4.10970856168945   -1.14620419134374
O          -1.39064018003962   -1.04572107555218    0.88034172651427
H          -1.42179718883668   -1.95073069689592    1.19646740127016
O          -0.66747707566431    1.39623720176405   -1.68315892166927
H          -0.96377417288709    0.45970177587766   -1.78714248683397
O           0.67012355461562    2.59994862889720    2.25011560586077
H           0.37286975845380    2.84747244324896    3.12616949697578
O           2.75283428390261    0.99540532047121    1.76659074064498
H           2.03985763742557    1.61102941443744    2.04973568215109
H          -0.79192129987735    1.81491778713469   -2.53511155206863
H           3.51158041567931    1.53940089987644    1.55221750796696
O          -1.51145077293109    1.76168646572007    0.94169290955826
H          -1.71229155641515    0.83206722904300    1.11315761200309
H          -0.14088424077548    2.33435473022770    1.75681178102676
H          -1.36845979977441    1.82253128801287   -0.01581404825814
N           0.98621556275434   -0.02994080348264    0.00639105931775
H           1.15509234568741   -0.80327949693303   -0.71014404001660
H           0.65426140147592    0.78886613365936   -0.51979174990306
H           0.20215261989350   -0.35899666089430    0.60223778498536
H           1.80906743553544    0.21833587937815    0.59406353840122
