    26
        -50.45267546  Gyration_radius:  2.74661501593 Dipole_moment: 5.947
 S          -0.76288825146762    2.84379907855208    0.43680375133442
O          -1.00604637760207    2.43375303817894   -0.94760471131216
O          -0.47738801789704    4.22882448167857    0.61648181844862
O          -2.17908160886109    2.58849033338722    1.19120725838507
O           0.14372138836618    1.90469596757277    1.09477867788660
H          -0.81298149247166    0.67944975269901    1.60600878952724
H          -2.52461845127258    3.47449885943433    1.21380709147222
O          -1.43181399864393   -0.09066062701031    1.67037952915246
H          -2.26339625245989    0.29254246039664    1.95557921777526
O           0.06110634910212   -2.81774524411740   -1.14786852457147
H           0.14755081024821   -3.76656900024223   -1.24811911721448
O           1.85282221569107    0.03581929493213    0.19848607711876
H           1.50341187294569    0.84912775128349    0.60667003249280
O           0.65379513643551   -1.98100140578297    1.47601267190428
H           1.64344105693430   -0.68750007736128    0.83344231515089
H          -0.10795379508542   -1.50123726553528    1.82611738504820
H           0.35624867330104   -2.40018890057317    0.65115331558376
O           2.24234231061730   -1.44262532912903   -2.06280040224164
H           2.36521054790068   -0.88132650713029   -1.27816705941581
H           0.86226133614898   -2.43009688543522   -1.54438655875235
H           2.72687600805829   -1.02809388303803   -2.77709510758932
N          -0.61200801867616   -0.08311351391595   -0.90609846041018
H          -1.12827651146952   -0.35478220735823   -0.04791983964422
H          -0.82611275385128    0.96468058268259   -1.06737580785424
H           0.40979524077936   -0.13402050047708   -0.66609089425275
H          -0.83601742676556   -0.69672026371070   -1.68340146803074
