    26
        -50.45739739  Gyration_radius:  2.57214204609 Dipole_moment: 4.504
 S          -2.55945794207625    0.04165597965529    0.51899428621410
O          -2.86358743069224    1.19203799223211   -0.29724163981793
O          -3.63095164955127   -0.49076233168896    1.29548060480192
O          -2.15083398742354   -1.13613276633596   -0.53311303862614
O          -1.29983124538570    0.21258421930940    1.26597460465784
H          -0.28626266168009    1.46321945728200    0.92431031339053
H          -2.99925480461982   -1.30455788192434   -0.92851411219224
O           0.35976571815422    2.16258590299906    0.66285058071458
H           0.13697705916124    2.93876943877264    1.17762134971749
O           0.74368406429015   -0.68447812022471   -1.91200048493639
H           0.56597917275592   -1.12348140988021   -2.74381734584024
O           2.68536343933157   -1.13473841501474    1.64327814969611
H           2.72435600507406   -0.69117829519834    2.49184769597723
O          -0.72277709979458    1.44134765129077   -1.77724262980480
H          -1.59652656635871    1.34208322160941   -1.33396711809564
H          -0.21304450578031    1.98706016116613   -1.15987532546188
H           0.13721923688934    0.11847049610663   -1.89152021609611
O           2.55093530172042    0.72428862688328   -0.21398498454518
H           2.15069884249703    0.28450407232860   -0.97601398672897
H           1.87428726817602    1.33975029578563    0.11538490796927
H           2.81691020771067   -0.42993900428892    0.95594199164030
N           0.32015258020214   -1.67713239794363    0.55152254615554
H           0.47127522056139   -1.42603429577648   -0.45619710258060
H          -0.08657018520477   -2.60219628156496    0.63104747175334
H           1.23668680435502   -1.59632676740118    1.06621625487002
H          -0.36519283211009   -0.95139950821187    0.92301721768256
