    26
        -50.45653075  Gyration_radius:  2.55756625668 Dipole_moment: 6.218
 S          -2.18504050554536   -1.33087370816945   -0.01621990186630
O          -1.40069239837693   -0.85191717308209    1.12183549388036
O          -2.91842457114354   -2.53150078500885    0.23081733786777
O          -3.29585156942350   -0.18732220131254   -0.28196539498868
O          -1.35653315655215   -1.32866789354623   -1.21955376979548
H          -1.12235458372294    0.24019639117768   -1.05209495414267
H          -4.08219550177558   -0.61053928009056    0.04766586747891
O           1.27483907974900   -1.74527778114037   -1.56619253762991
H           0.30479346906232   -1.75926587599490   -1.67090627615617
O          -1.01254723195728    1.21927564239475   -0.97070977971913
H          -1.89030054863494    1.56444994729417   -1.14756294920586
O           2.30672382948652    1.15343770183980    1.21575880986677
H           2.89225010469783    1.51601988212249    1.88117378822399
O           1.70746769989192    0.91618206732358   -1.60991672283218
H           1.54542985885465   -0.83616416119460   -1.82164158332711
H           0.77511910595308    1.16649538144900   -1.53175633351821
H           2.10224728075332    1.07698389470115   -0.74394301650537
O          -0.05421677710972    2.29571859584876    1.30033322620853
H          -0.51261773011042    1.76259982710258    0.61463171195897
H           1.43841820038624    1.62517300866135    1.31072189740778
H          -0.15097107853848    3.21134659881581    1.03235367121687
N           1.14577651844481   -1.32286653271797    0.99748566853361
H           1.42223908384441   -2.06890861586800    1.62523430388506
H           1.29186126449209   -1.59925172434511   -0.03740264697809
H           0.09823486402260   -1.12299352412749    1.10520473303746
H           1.67634527323526   -0.45232967211247    1.18664936713250
