    26
        -50.45653076  Gyration_radius:  2.55765717763 Dipole_moment: 6.223
 S          -0.99277079381376   -0.79332424522313   -2.22096080536323
O           0.31849281232688   -0.20404720603990   -1.95079448536868
O          -1.50690839097765   -0.52542310935114   -3.52643824986735
O          -0.76380711394274   -2.39212223805317   -2.16119279961936
O          -1.89812031095388   -0.50757271598345   -1.11046885058703
H          -0.90719601697416   -1.25994006811502   -0.11246161217465
H          -0.80768287807833   -2.62187434434348   -3.08394354941083
O           1.92644425753256    1.31581736538579    1.63863826406996
H           2.75250407379361    1.70295301024746    1.92980912802476
O          -0.31320027615485   -1.76252901607966    0.49734506974220
H          -0.39638234205550   -2.67167784045055    0.20170251518028
O          -2.06563531718565    1.59883662251828    0.54880866528097
H          -2.28741773682808    0.86337528870784   -0.05287108167107
O           2.28778916723340   -1.11048496568666    0.70678796179143
H           2.14018821907518    0.40868180915756    1.29663940973236
H           2.52765085875770   -1.82099865480942    1.30443620996328
H           1.37173068445678   -1.30350548284971    0.40987897944043
O          -0.65709954443363    0.25981018520566    2.41823824186180
H           0.20813300379003    0.68497121693826    2.37075618760483
H          -1.77108231296312    1.16726496879203    1.38067495728609
H          -0.58167677760049   -0.56198961270118    1.91126483537842
N           0.29923131635160    1.93257080567573   -0.48255052932292
H           0.47518247541722    2.76742187067793   -1.02949375799805
H          -0.69842308591199    1.93276104686829   -0.06621688244463
H           0.35800898343823    1.06499506592782   -1.10937362570145
H           0.98204705570452    1.83603023358760    0.29178581417225
