    26
        -50.45495403  Gyration_radius:  2.70770211712 Dipole_moment: 5.634
 S          -2.77791023379960   -0.35300221450634    0.36175308464659
O          -2.26631423476771    0.21372001423841    1.61569839593901
O          -2.64808307355762    0.53963933514101   -0.76227086614560
O          -2.20339528810872   -1.67118655789574    0.12991564448622
O          -4.33339218167481   -0.56633495413053    0.60273155509755
H          -4.35962713548246   -1.01471692050122    1.44284275303969
H          -0.70442683004268   -2.18203157067119    0.30966153536667
O           0.23664582748526   -2.43455266550573    0.51701973339344
H           0.20758115261351   -3.35711518524596    0.77206156971433
O          -0.17255114360950    0.75030329600026   -1.51495300506235
H          -1.15202688065258    0.70250687898237   -1.39779514621542
O           2.91239473734344    0.75507401112470    0.24518043504254
H           3.86426788889071    0.76158583894980    0.14211154505329
O           1.85384743928250   -1.12053124850226   -1.31009275107672
H           1.36687752776103   -1.75898060297018   -0.76305736522436
H           1.16948434887272   -0.58746276242666   -1.74127671079746
H           2.58249659998277    0.02544973637078   -0.34066880130027
O           1.35869080954971    2.84161226781983   -0.63949669431953
H           1.88836498404525    3.53558159011034   -1.03207663516177
H           0.08150264051817    1.68647673133670   -1.50197168410069
H           1.97960331928021    2.16301601917065   -0.30981368854613
N           0.24427469482000    0.22502963401063    1.06217372758375
H           0.92189103019955    0.83656149702583    1.50954109469951
H           0.18426216071474    0.45460677585117    0.02589015494733
H           0.52073948562590   -0.76412387570582    1.14258945275500
H          -0.75519766527830    0.31887492193036    1.43430267619152
