    26
        -50.46456600  Gyration_radius:  2.39509081158 Dipole_moment: 4.078
 S          -1.37740094990026    0.91676129824440   -0.65846153796732
O          -2.33204389066577   -0.02012250661277   -1.18288520671419
O          -1.81150568027779    2.28499283456337   -0.47280236342938
O          -1.00335091547993    0.45953894064290    0.81590060123209
O          -0.09646094301101    0.87592239884778   -1.40210753326581
H           0.72623414703323   -0.46171663441587   -1.66316250511963
H          -0.97849958429616   -0.52786947333262    0.90458512501881
O           1.24820804179285   -1.30132161712149   -1.74189187541187
H           1.78989712092590   -1.21298493910487   -2.52690728066972
O           1.29347424983730    1.24510546707558    2.21132379117608
H           0.41134074219902    1.02894827692297    2.52893403389255
O          -0.89011910880497   -2.14219106081454    1.14496597182442
H          -1.65702121277058   -2.46685289426825    1.61918349391434
O          -1.24877079608905   -2.45398758358492   -1.38759455458392
H          -1.02402513425156   -2.40814954801038    0.18296890666040
H          -1.75710592134825   -1.61946603523474   -1.46847781103535
H          -0.35335619972114   -2.25263987828701   -1.70445575936443
O           1.74024120094533   -1.09382659268752    0.99491528640058
H           1.60401100296709    0.41427699695517    1.77492919954984
H           0.97955865755399   -1.61884513015870    1.27482439233989
H           1.75094896012897   -1.17664116007135    0.02761629122526
N           0.62985436276244    2.75214944854215    0.16222099555282
H           0.70089118546049    2.05024368936941   -0.62213781661700
H           0.94995314160670    2.25045754077648    1.05245935925261
H           1.12884860514434    3.61829182069824   -0.00989858883243
H          -0.42380106174622    2.85992636107131    0.14595538497084
