    26
        -50.44757182  Gyration_radius:  2.5250220499 Dipole_moment: 8.286
 S          -1.72734396840126   -0.46086256874604    1.49405826211198
O          -0.49616700946453   -0.32856508220697    2.23998405360956
O          -2.70253377928923    0.54270569009207    1.72574423897997
O          -1.34996839706809   -0.47887200157103   -0.03071514727917
O          -2.30447275458568   -1.86059867303333    1.67293047361583
H          -1.68599489248753   -2.50703662261754    1.16996430208666
H          -1.26659494379622    0.47282836764471   -0.33534271743030
O           2.28202078418666    0.31586377876920   -0.39519967537809
H           3.20203407616148    0.42333758349771   -0.14752304877641
O          -0.70671953379211   -3.22424594376176    0.26057626123262
H          -0.88294063656879   -2.83001829829674   -0.59772641419169
O          -1.08575126581804    1.95185028006494   -0.83397946667771
H          -1.90198162479289    2.27713142697507   -1.21700695072535
O           0.81592582014700    1.79116621551180    1.23166782709753
H           0.38332580119577    1.10974020457074    1.77853394289702
H           1.76762108622557    0.90609806915958    0.21768718159918
H           0.11514702668727    2.17979724354978    0.69450110804986
O           1.37109502574880   -1.86422246739806    1.05894090078309
H           0.17096223717559   -2.85083253552325    0.55426958287699
H           1.72201092701557   -1.22107224930950    0.41707378847091
H           0.82655041024020   -1.33887090153417    1.67212249899761
N           0.74777925345701    1.39059045255325   -2.63306256658705
H           1.25208468672464    2.14767300273546   -3.07661029917542
H           0.48343711067847    0.72583357997841   -3.34871536839174
H           1.38804223234015    0.92065590782841   -1.99230605154071
H          -0.41756767190565    1.80992556108610   -1.57986671608266
