    26
        -50.47298403  Gyration_radius:  2.48788245439 Dipole_moment: 1.935
 S          -1.67812197698068    1.00996515733487   -0.87808120392529
O          -1.95270663643536    0.03442890785992   -1.91351616696445
O          -2.11117258400913    0.61185305641416    0.44435070380174
O          -0.28033618971542    1.43675456018116   -0.89178869547180
O          -2.53342196708949    2.29288777060184   -1.24770953819464
H          -2.42918166178249    2.33798490988348   -2.19225483970436
H          -1.12035640825556   -1.32848667815906   -1.74996552786782
O           3.10365418367411   -0.32859399974641    0.41403061477614
H           3.63634327438658    0.46140014455016    0.31077703846444
O          -0.56364821120734   -2.12884235741108   -1.56639350093241
H          -0.92384758898766   -2.83385655248258   -2.10673778333227
O          -0.18773279066406    2.03045867016907    1.64290819598986
H          -0.03890212898769    2.01715051683380    0.67266330689678
O           1.55481378841817   -0.34434624184364   -1.68517386136470
H           0.93191772860509    0.38202498810921   -1.48401072993524
H           2.57974727952010   -0.40803252300556   -0.43200857327763
H           0.99967595014372   -1.13632904897956   -1.74331368260537
O          -0.90705319309598   -1.66620055216677    1.09603906512886
H          -1.10936934450658    1.73763287151960    1.69806182712399
H          -1.49642627988873   -0.90157513071291    0.92615880320136
H          -0.71058656539124   -2.02808120619834    0.21300415988841
N           1.06271946163532   -0.25453490559366    2.11610247236683
H           0.32638923077212   -0.93026629367347    1.74032641595544
H           1.29219390234220   -0.47588806167166    3.07840049030199
H           1.92110829679746   -0.30285688501402    1.50275205125090
H           0.63430046054395    0.71534891314344    2.03537895844250
