    26
        -50.44548850  Gyration_radius:  2.51869586856 Dipole_moment: 6.901
 S           1.64628383495642   -1.35083450694786    0.21141988404600
O           1.53436470571996   -1.22259174373082   -1.22054997133259
O           2.76206674495975   -0.70699789617342    0.80920280605306
O           0.32510993549974   -0.79888093015058    0.84903495125587
O           1.57283654540648   -2.82762980745046    0.60815885492038
H           0.61938328786703   -3.13075298915778    0.40031085352683
H           0.47117186256528    0.09879792502047    1.26979512675661
O           0.53614405978906    1.51101648422417    1.98426942713245
H           0.63246966610797    1.35793083621232    2.92604200399462
O          -0.88893587054554   -3.28132960587840    0.15590139156548
H          -1.29984885997481   -2.83855606151195    0.90267030282183
O          -1.45779210940029    1.23846326993309   -1.14043677834673
H          -1.75949515676021    1.59161556095048   -1.97910238362503
O          -1.94209141714432    2.18173857609333    1.33867260005194
H          -2.12816333860293    3.10917006517606    1.18134559712357
H          -1.90647491992578    1.75261637166480    0.45783016980985
H          -0.39629215826495    1.80770135113533    1.82923463692857
O          -1.07751432207816   -1.47965210490797   -1.74549799751989
H          -1.06459856785324   -2.69493778838714   -0.62995447668005
H          -1.37863315740479   -0.61433101415839   -1.42233448851378
H          -0.10609728396550   -1.40979615125833   -1.77546764066120
N           1.16676142139263    1.60720827139809   -1.01371835232951
H           1.44086591049793    1.80068916015367   -0.05688970195319
H           1.48339498252057    0.66266519426652   -1.22272264377141
H          -0.46579505214600    1.39510972586565   -1.10418454731457
H           1.68087927679596    2.24156781761525   -1.61302963394414
