    26
        -50.46015594  Gyration_radius:  2.5691917651 Dipole_moment: 4.623
 S           1.12576713140233   -1.86983507009583    1.10430991988366
O           0.44254874050760   -2.09507773431472    2.34626568086699
O           0.43724635461006   -2.28992720779876   -0.09536121313367
O           1.55925155611436   -0.46400563007165    0.95595424884873
O           2.47682027599568   -2.71748907142436    1.17176954168395
H           2.58664471804282   -2.89061041701741    2.10233538917114
H           0.23357844735221    0.22768028889385    1.70867043131606
O          -1.69496739895338    0.06555928265344   -1.66091897407895
H          -2.18956166789400   -0.34263763930293   -2.37211539026008
O          -0.64246062943685    0.50072666320680    2.05470826107726
H          -0.69321534679327    0.10105621700733    2.92634514017762
O           0.99053866478000    2.88801870684928   -1.41009591877348
H           0.73231577504576    3.52000956047948   -2.08222843130629
O          -1.18467328981105    2.32379929123155   -0.01167560708138
H          -1.03048094942009    1.86575952676986    0.82727609900738
H           0.22303680498705    2.81883430415501   -0.78784825206262
H          -1.57515991859331    1.66264691667194   -0.59991933766018
O          -1.97156826875322   -1.32947581821174    0.47804541757501
H          -1.19090049674513   -1.89917638300537    0.33423946733192
H          -1.70176226271966   -0.70938929097656    1.17935686612913
H          -1.88878037848907   -0.48905478681335   -0.83925551675078
N           1.00117141188183    0.22097097692506   -1.48910930907977
H           1.16398832372127    1.25444387670435   -1.57830831928008
H           1.26969299182238   -0.07172340165529   -0.49659403829095
H          -0.02401179187989    0.04156330126632   -1.61584494307664
H           1.54494120326514   -0.32266645217856   -2.15000118224146
