    26
        -50.43578450  Gyration_radius:  2.81652329817 Dipole_moment: 6.318
 S          -1.97743138492731    1.95670671866068   -1.86568108887506
O          -2.48548560233616    0.74838718768417   -2.66160191414251
O          -2.69178366110386    3.12282030642062   -2.23462954342756
O          -2.37299372012574    1.58833323361278   -0.37169286237022
O          -0.54443569681190    1.98003086545607   -1.87044736713937
H          -0.02391486585957    0.12022417765860   -2.12138219211767
H          -3.30515076712443    1.76029579630640   -0.26261486499802
O           1.35473164244551   -2.31958197535047    1.45642604934617
H           1.73366841607502   -3.07410010267634    1.90760786015395
O          -0.50798033759454   -0.71762069941066   -2.17627226333054
H          -1.76624316332342    0.01771868739017   -2.55923319706049
O           0.66813471270719    1.12964781809201    0.43565723710972
H           0.26091094587271    1.65277325139771   -0.27030343514418
O           2.13429160696540   -0.85460016472139   -0.75625695551012
H           1.98116453346309   -1.47887218960492   -0.02540087574488
H           1.64532126951714   -1.19859958494386   -1.50967601635858
H           1.34777851673598    0.57875344375124   -0.00506124197249
O          -0.90863580901762   -1.09589975060123    0.37826885403445
H          -0.27464345411175   -1.72894820934088    0.74808110934665
H          -0.54463288942920   -0.21477821244417    0.59748389551239
H          -0.71122035164346   -0.97947680800507   -1.23162607801304
N           1.40823935011413   -0.12046204469983    2.98201133323651
H           0.72628838800532   -0.04985098422353    3.72695782630844
H           2.30328768777976    0.17772895308719    3.34921624652722
H           1.41038169512931   -1.54355558792566    2.08234800142197
H           1.14035292860777    0.54292589445742    2.25782149318936
