    26
        -50.43782375  Gyration_radius:  2.75408216559 Dipole_moment: 6.969
 S          -2.71229536008086   -1.32029225370944   -0.69746992789029
O          -2.28667302762327   -0.43845164553228    0.34833031518373
O          -3.30419359704534   -2.55013534710266   -0.34230690741424
O          -3.67511173670154   -0.51798905447696   -1.64306152353726
O          -1.48222544421698   -1.58723850194924   -1.63295241224010
H          -1.28914415832349   -0.67723412459227   -1.98482354329036
H          -3.21231567395960    0.30785799724618   -1.83618148446113
O           1.09636150757704   -1.28611608200888   -0.24051218320785
H           0.46829462927598   -1.79118698954610   -0.76483151111952
O          -1.41985242021365    0.90913825168090   -2.26863834715346
H          -1.16596699125370    1.20535066331751   -3.14584406442667
O           1.08019660909278    1.78542128218234    1.83887648173477
H           1.26726514609505    2.44434126383050    2.50761081202821
O           0.67700367181474    1.30090155196729   -0.85906272113499
H           0.93718793126542    0.36371368434074   -0.70749536907210
H          -0.65235707834289    1.17370293992972   -1.66221204897339
H           0.62308832401869    1.68177644971361    0.03071128705277
O          -0.16880653537545   -0.71240217353633    2.00159114162612
H          -1.04103217209628   -0.64866396328209    1.57757028737831
H           0.67496760606825   -1.19122010885744    0.65512990437254
H           0.12998286323026    0.20505043023285    2.11202168358720
N           3.21340509834784    0.22041103375801    1.33049944125535
H           1.91808393789287    1.26854841182287    1.69180891410123
H           2.77248577738671   -0.42584022202123    0.68271192221305
H           4.03504893810018    0.59914195863392    0.87633013382934
H           3.51660215506051   -0.31858545201683    2.13219971956424
