    26
        -50.45796948  Gyration_radius:  2.58084790139 Dipole_moment: 5.773
 S           0.34541524824678   -0.39528388276409   -2.39942970565266
O           1.40795462723963   -0.08714342005686   -1.43977357508181
O          -0.60283479975706   -1.33879149837621   -1.86557292689703
O          -0.23875221529423    0.80774196070115   -2.96230057164934
O           1.07022470413850   -1.12470467591046   -3.62165655139520
H           1.41407137153969   -0.39420296577558   -4.12734092252758
H          -0.86963832083981    1.19618024029129   -1.57101592196296
O          -0.93857041285118   -2.56434397976081    0.46345871194126
H          -0.95095325695909   -2.31762508940504   -0.48358445112923
O          -1.33036780792710    1.45696835237380   -0.73132953421041
H          -2.19662322671792    1.76555446436390   -1.00804015888529
O           0.72661576683603    0.64555451390407    2.62883857167396
H           1.22793569784175    0.93805699404574    3.39073961355611
O          -1.78856448439495   -0.21188758071887    1.45666597088523
H          -1.07549148277471    0.04778484197472    2.05144668283528
H          -1.65811325450575    0.30274342813687    0.64202883856273
H          -1.48741606194555   -1.87627154424686    0.89560179683775
O           0.28141048613620    2.71080996000172    1.03934339229022
H          -0.17737699947249    2.28038462445163    0.28919049654507
H          -0.30618324331484    3.40250836722343    1.34925044879758
H           0.62703232945707    1.43400669274143    2.03824142381021
N           1.32722575787859   -1.34506422648132    0.81387353729021
H           2.15769420396912   -1.90394244968131    0.97051993838570
H           1.39853470772966   -0.82670562029205   -0.12461404313439
H           0.43797233587307   -1.95905313912055    0.74165566545673
H           1.19879832989670   -0.64327435762573    1.56380324367061
