    26
        -50.46846769  Gyration_radius:  2.39940030643 Dipole_moment: 5.641
 S          -1.08321681230932   -1.12833622921416    0.93041238109844
O          -0.70215443145274    0.13174838918576    1.61381829243190
O          -0.99874318965331   -2.26216742796002    1.81057871714168
O          -2.56013894481099   -0.94642969833486    0.46708978169662
O          -0.26251608364594   -1.28948048190968   -0.26445941751462
H           1.39630960371757   -2.95618000305994    0.27593493814227
H          -2.53985590056493   -0.25767917767502   -0.24012827111785
O           1.53731343401497   -2.71742242727889    1.19708024802905
H           0.62543165391185   -2.68725333829350    1.56990328289166
O          -2.44142769319283    1.04742496995964   -1.29411619162334
H          -3.29356983851105    1.48674462424711   -1.28367815687602
O           1.76924742013827    1.42200026103226   -1.03428049642062
H           2.47212210848668    1.71970379281061   -1.61304238878197
O           0.00212298933108    0.12701413717213   -2.43257587909275
H          -0.10070144512734   -0.54137591377376   -1.71729806369644
H          -0.86232072560148    0.55254270615848   -2.47321555359107
H           1.11599494452288    0.93626064558213   -1.62208982090068
O          -0.68357989427891    2.32917250579583    0.14926998234339
H          -0.73117898915871    1.61208553999635    0.81885064831531
H           0.19567643349039    2.25420724635678   -0.24638711342518
H          -1.81271647461125    1.63761931820051   -0.79081038847886
N           1.83125319911651   -0.08330662854177    1.24013448055927
H           1.88130240831219   -1.14170537497393    1.15614296084755
H           1.96740756309765    0.39658575320723    0.32500156145612
H           0.80608961420461    0.09008347556893    1.51364542110525
H           2.47184907047341    0.26814329567308    1.94421903546414
