    26
        -50.45796950  Gyration_radius:  2.58081468778 Dipole_moment: 5.773
 S          -0.41384913541090   -0.95802410809234   -2.22338077761369
O           0.89099286342199   -0.91333482225860   -1.55988513388809
O          -1.46657158128449   -1.32781064118745   -1.31268194620864
O          -0.66733952720479    0.24324639969026   -2.99670855170679
O          -0.30894535363748   -2.13671195335875   -3.29616739873392
H           0.12933573330653   -1.71445319553550   -4.02909169718032
H          -0.76265227917740    1.11149725739435   -1.68463397459766
O          -1.61956856089483   -1.84289662731694    1.28545351689400
H          -1.77877638595467   -1.80066469885722    0.32068997783473
O          -0.88333435879983    1.69091131582796   -0.88773140683864
H          -1.62990518368522    2.25589053730196   -1.10128692963664
O           1.52754331343351    0.80484078923475    2.20781780122862
H           2.26992009660330    1.01823987576615    2.77413617236747
O           1.44482665355769    2.52560754880790    0.20226577543845
H           1.56368784779585    1.43705899231388    1.44669099195668
H           0.69615878850767    2.17397699944840   -0.32150594063219
H           1.22726367159026    3.43904036766835    0.39761740295434
O          -1.33492410887750    0.79836043661890    1.71653295838257
H          -1.77347338593707   -0.92442872373197    1.59227261795124
H          -0.45308129346670    0.86624318909196    2.10045612465278
H          -1.24005402199454    1.05079398980662    0.78231927046870
N           0.93942202725621   -1.57306259725593    0.93614964237322
H          -0.09545555827121   -1.78797647986617    1.17239112383563
H           1.24936348784943   -0.74622164334044    1.47620732936831
H           1.53790994534204   -2.37199054480778    1.10965361653667
H           0.95150631593923   -1.31813166336703   -0.10758053520524
