    26
        -50.45791868  Gyration_radius:  2.56522194979 Dipole_moment: 4.567
 S          -0.25287890010554   -1.22900379535546   -2.07310099527405
O           1.15554877435683   -0.96274697307905   -1.86529723679454
O          -0.97072619196548   -1.39678842854091   -0.81828741833580
O          -0.88342306255303   -0.29299019416450   -2.98248528300424
O          -0.34514552093354   -2.65897910761274   -2.78459489819782
H          -0.09129267892146   -2.47797840962943   -3.68493594533480
H          -0.70569740410318    0.84089726123366   -1.88860097968546
O           2.62786685534114   -0.63182285795599    0.30562487625735
H           2.28365744268313   -0.79122790306644   -0.59910517428146
O          -0.57421137962605    1.59918110527140   -1.26482424768610
H          -0.41784028014859    2.36284255218473   -1.82598803111785
O          -0.56453262785682    0.69189040747594    2.70219394056400
H          -0.97238974027548    0.75959759001575    3.56615608854506
O           1.34880586295317    1.69238010602989    0.75562947172237
H           0.82374617808513    1.50740247347026    1.54296558512596
H           2.44337944090799    0.31806125000508    0.46454029041760
H           0.73520491918181    1.63274074395491    0.00376995629536
O          -2.25754800622106    1.55974977642755    0.86778961925944
H          -1.24556404382456    0.98376879776010    2.04557988540353
H          -2.51502885612580    2.48347112326369    0.85295988799380
H          -1.75748286365054    1.40442354498888    0.04244442105624
N           0.42472627790686   -1.49801249448048    1.35705362647571
H           0.41345320804124   -2.40829554961080    1.80150697837563
H          -0.17803864032990   -1.50615136348252    0.47084251580320
H           0.05714304967715   -0.76300412649646    1.98662661834357
H           1.41826820749371   -1.21940554865977    1.02153645806924
