    26
        -50.45791862  Gyration_radius:  2.56503843197 Dipole_moment: 4.567
 S           1.21870731840989   -2.07166843804639    0.30509996862285
O           1.77916579524640   -1.07400982803822    1.19298140655182
O          -0.20632238247706   -1.87292182189423    0.08585681600462
O           1.97713799492376   -2.23855397718551   -0.91869695475616
O           1.31671545690594   -3.47110379107697    1.07428428116030
H           2.23777215114815   -3.70364872250932    1.00005756740887
H           1.50623391711088   -0.79318233562938   -1.36946916065767
O          -2.28629430929472    1.63442325594531   -0.44923059302628
H          -3.17015613445353    1.93895530776688   -0.65769700810079
O           1.28666486965457    0.12201591501602   -1.67865642314723
H           2.06378457170621    0.41908538725407   -2.15866796941178
O           0.76054768850500    1.05165163966549    2.39059386102780
H           1.30286243351221    0.28633650646097    2.10306994741985
O          -1.27296793082210    0.39229478085120   -2.55038764733836
H          -1.96422105946590    1.13944144806414   -1.24389617132930
H          -1.08980074309763    0.88255168605250   -3.35401674985617
H          -0.40610105839219    0.09530014132499   -2.21024038045763
O           0.52599482449619    2.23091650142043   -0.01643109738584
H           0.84835371043531    1.48027471581871   -0.54368227140202
H          -0.42765988762256    2.26353140147736   -0.15526936485881
H           0.84133232053339    1.68967063347845    1.65031438656679
N          -1.39994489668883   -0.07863731737100    1.51632036938197
H          -0.94498616315002   -0.86040082527086    0.94129924382243
H          -1.86179688161584    0.57412921093828    0.85878465689322
H          -2.05925837938317   -0.46551309330964    2.18113581378013
H          -0.57576320612732    0.42906161880631    2.00654348308805
