    26
        -50.45791863  Gyration_radius:  2.56512695891 Dipole_moment: 4.566
 S          -1.96878930648045   -1.34348320836698   -0.43554045552758
O          -2.30450272524819    0.04842851070087   -0.65363703338824
O          -0.57822009949484   -1.62947639592454   -0.75604869578609
O          -2.37765647342897   -1.83288549534697    0.86602477582884
O          -2.81014740934453   -2.18686181612655   -1.50339540821346
H          -3.69253525336220   -2.18703821431719   -1.14388045236280
H          -1.27551456412683   -0.90355382638089    1.52607820544316
O           2.77484092763101    0.63224657760564   -0.00878417921210
H           3.72797735899311    0.57907657600363   -0.08691784738454
O          -0.64046267802424   -0.30577286279902    1.99590144968070
H          -1.08097638953111   -0.06354340464040    2.81433399026904
O          -0.88865039277320    2.14859998570369   -1.41175684519749
H          -1.59092578688471    1.49980452123239   -1.19179224661625
O           1.95022288800368   -1.10336773530873    1.80571175680973
H           0.98012238117897   -0.99055313220090    1.76630098161944
H           2.50680679161073   -0.06137860072978    0.64484710639483
H           2.19466335851664   -0.98624922298855    2.72565464291598
O           0.41920838204586    2.04920438809616    0.93768511916804
H          -0.02040282853230    1.25223969387560    1.27971359286154
H           1.30836096153233    1.77483088108748    0.68485644612977
H          -0.51285514155149    2.39424446287191   -0.53996875935081
N           0.80024388330905    0.24335189513024   -1.88851088287356
H           1.63768833901607    0.40008436056477   -1.30041788960326
H           1.05262507462886    0.03495261918371   -2.84725191864130
H           0.24418297121652   -0.56788707424064   -1.46255796004101
H           0.14469573110319    1.10498648739004   -1.81664752300636
