    26
        -50.43987377  Gyration_radius:  2.61916074081 Dipole_moment: 8.080
 S          -1.90360434329462   -0.90370711688556   -1.12307948279500
O          -0.93278262934776   -1.81990238716459   -0.60348208800794
O          -2.78080258763362   -1.34245608246626   -2.14283487340553
O          -2.74881698130488   -0.33387654572583    0.05290714285269
O          -1.13741531213048    0.38559312569486   -1.59805230092677
H          -0.14408498916197    0.21718768462934   -1.56783616704920
H          -2.10336478195311   -0.03970251337860    0.74053087113351
O           2.50266425653753   -1.95758844685389    1.64534680958017
H           3.42557360435595   -2.20854931954291    1.69769631244030
O           1.41556584252113    0.15040427742159   -1.45467737033648
H           1.83284236714645    0.89477034397506   -1.89142688530715
O          -1.07412474888342    0.81547271532454    1.71707596722152
H          -1.43885232860088    0.97198651768024    2.59010112355584
O           1.63430586320597    0.49971934961004    1.08377559664618
H           0.71830186198320    0.51838396656125    1.40040615161407
H           2.00023784533326   -0.35840228421535    1.39943383247830
H           1.53932503704931    0.29460439591782   -0.45853834836697
O           1.64472167366733   -2.61650386008238   -0.78963527407120
H           2.16591233945777   -2.32534969398602    0.79136009985358
H           0.67975839308688   -2.59637238314569   -0.68193707685847
H           1.83495476915357   -1.80806746280474   -1.28086776587069
N          -1.44182436261705    2.83736383141116    0.04958464869835
H          -0.72484284750773    3.53699682748609   -0.09444864884832
H          -1.17595613458626    1.66210975488139    1.18855216521653
H          -2.33776824672396    3.30657767424054    0.08842048878627
H          -1.44992355980736    2.21930761143718   -0.75837492824025
