    26
        -50.43987376  Gyration_radius:  2.61924490806 Dipole_moment: 8.074
 S           1.92933928685065    0.29910060319751   -1.37481868803490
O           1.18151112163306   -0.91367988135180   -1.52246228757787
O           3.27199721693016    0.33295765372694   -1.81977616832127
O           1.14964922302002    1.46541572377524   -2.04853140308181
O           1.85904488167784    0.72226034433888    0.13878012997811
H           1.43850316719838   -0.01957811881619    0.67607387689052
H           0.22179322371950    1.40786566222850   -1.71433481344266
O          -2.25974959049417   -2.76213374331911   -0.24881190156896
H          -2.66019945322953   -3.51943314275207    0.17967812279882
O          -1.20282091731849    1.59089774632547   -0.88832357186669
H          -1.85489714278396    2.08992558667119   -1.38377333644327
O           0.69224834446383   -1.02206542894716    1.61874084239539
H           0.80860140057539   -0.79119366276326    2.54184018512934
O          -1.72577110922282   -0.44597375206390    0.95898361638929
H          -2.04591396515408   -1.27282990008107    0.53042099034433
H          -0.27344421061887   -0.81414293152283    1.38951889629673
H          -1.62892482282897    0.19422826476924    0.23754865538085
O           0.37509641266721   -3.15844859031827   -0.24774336633222
H           0.68068565772422   -2.52394305291255   -0.91641797006194
H           0.62620274245793   -2.74587382143293    0.58760573279590
H          -1.30201911020241   -2.98291751405596   -0.35836385229616
N           0.17398161592659    3.07110498269922    0.81962255674045
H          -0.09194302588975    3.13542298473586    1.79399877362608
H           0.98616232473869    2.46237867197852    0.75122920716231
H          -0.80060280638819    2.20797614310005   -0.20717617711195
H           0.45146953455816    3.99267917276652    0.50649195018696
