    26
        -50.43987375  Gyration_radius:  2.61907636063 Dipole_moment: 8.078
 S          -0.47620517513268    0.44170729698574   -2.29696496714884
O          -0.01422159561248    1.52804207954095   -1.48556751950201
O          -1.17129750701941    0.73073758293349   -3.49493504408407
O           0.72215969688019   -0.49472996114301   -2.62721584777858
O          -1.35141439794898   -0.49613419688649   -1.38623299055873
H          -1.50908336092515   -0.04923945315751   -0.49657444030008
H           1.17927913681718   -0.67163600274738   -1.76949767793470
O          -1.73217067938731    0.45680456454693    0.96751137180465
H          -2.38736416786447   -0.07108844069902    1.42688879153778
O           1.40327637929864    2.37904955451468    2.27419567221476
H           1.29918857325832    2.88028696273359    3.08373102811945
O           1.71782273872430   -1.30488310520411   -0.33645314648670
H           2.60199739306191   -1.67014204828399   -0.40362849744337
O          -0.60498639943136    3.06196569224588    0.66176992207173
H          -1.27482502237626    2.41385001979150    0.91138942849719
H           0.73358857030450    2.73754607023946    1.64099451577666
H          -0.29311851427700    2.74664135518895   -0.20220200987535
O           0.57650896657324   -0.13277460209423    1.93490814103071
H           1.07739578388871   -0.45885834948595    1.17170580892543
H           0.96575828359171    0.74750568664919    2.14345326731816
H          -0.83589918587745    0.22987756641198    1.38421286222689
N          -0.18938148459520   -3.11822889648880   -0.61556840783420
H          -0.04575791073055   -3.82825569702664   -1.32235568409272
H          -0.62191106567864   -3.55549719738829    0.18814539489445
H           1.06977663745579   -2.07041209828621   -0.35937093934747
H          -0.83911567298793   -2.43213437288528   -0.99233905206164
