    26
        -50.46213383  Gyration_radius:  2.46940465377 Dipole_moment: 7.598
 S          -0.37971826842599    0.41545649872088    2.18590738072399
O           0.98869222118385    0.57584737622756    2.61350148792291
O          -0.72977219959150    1.44666974294466    1.19665642498137
O          -0.68190514792698   -0.91752771078323    1.70244399178814
O          -1.31497434016635    0.65686053593018    3.43887086993868
H          -0.93905849081714    1.41280040009733    3.88142912223259
H           0.77096243307521   -1.32201973180849    1.07928197922821
O           1.68577190812337   -1.33850883575092    0.70209839308285
H           2.25835593571524   -1.35854971361853    1.47309355532572
O          -1.94357498288958   -1.68664651950803   -0.62068241687729
H          -1.64821243398886   -1.57374355879115    0.29602348287953
O           0.42061279602066    0.66533531860167   -2.59428193491419
H           0.63591965470429    0.72515624353590   -3.52515952638148
O           0.37717163652593   -1.79765345636212   -1.84272357897993
H           0.97154921360418   -1.92500102705072   -1.09557510481131
H          -0.53956125802513   -1.88690640600647   -1.46273294276234
H           0.37749750630428   -0.32052521730555   -2.37600102252112
O          -2.07471904758682    0.97247272815062   -1.15925513556574
H          -2.23170791257459   -0.79420373055098   -0.89909669212282
H          -1.73860473592454    1.22928145970013   -0.28517549236324
H          -1.32643902162087    1.03330760407575   -1.76723747837045
N           1.43856656669547    1.17748122293508   -0.20095362277657
H           1.69364173630333    0.20876833314161    0.13160619330129
H           1.17035167453709    1.13056079220770   -1.21471304763651
H           0.57056080720337    1.43494066898836    0.36505337737492
H           2.18859372953600    1.83634699227405   -0.02237826270275
