    26
        -50.45332210  Gyration_radius:  2.73156328241 Dipole_moment: 4.607
 S           0.95016798659526   -1.80790620653982   -1.98929749984681
O           0.22490105772142   -0.70754107643839   -2.63048223404166
O           1.59029547763500   -1.36576466622105   -0.75421237342808
O           0.12966422604583   -2.98116663284754   -1.81856297821095
O           2.13420659337432   -2.20086512046483   -2.97515225294477
H           1.70876625075269   -2.74303857969560   -3.63366368799588
H          -0.77089445421022   -2.84504604242752    0.11171729236397
O          -0.48932298686247   -2.11723084196684    0.67928030432240
H           0.41862623262919   -1.94032645472178    0.34812763781219
O          -1.97090023675994    1.81017846303224    1.51442114871330
H          -2.47583579742796    2.25112031735202    2.19875583069245
O           1.42087369029995    0.93626136756052    0.60331297051607
H           1.76579358588050    0.16729902308209    0.10908347644169
O           0.09337191756081    3.32244338435819    0.58246082297146
H           0.78193611951797    2.63834354586087    0.64276777663929
H           0.28647096532886    3.83650854686185   -0.20255665259981
H          -1.28687240116495    2.44788796703311    1.22999155696660
O          -0.10730065773498   -0.02729192341686    2.58291413684143
H          -0.86652592951432    0.52734053147249    2.33775040097555
H          -0.30326906023779   -0.91728894694517    2.26723613540839
H           1.13238145453603    0.58622015112840    1.47561498377745
N          -0.91160865441641    0.24810110602908   -0.54346814261781
H          -0.58628042601587   -0.04170904098479   -1.52237580552459
H          -1.74229112973822    0.83251819563947   -0.50127243481210
H          -1.04080859467864   -0.64069035262658   -0.00914793353733
H          -0.08554522910105    0.73164330591295   -0.10324245892853
