    26
        -50.43982544  Gyration_radius:  2.40978060218 Dipole_moment: 9.268
 S          -0.51182106535976    0.33069860922942    1.82525036165760
O          -0.11248542468776   -0.92433162480301    1.18498492004382
O          -0.32480803378958    0.37938147791731    3.23321093166050
O           0.12259201667574    1.45351946536603    1.09644719098325
O          -2.06122263831915    0.45903069775837    1.50276166499871
H          -2.07797925758901    0.09372328065316    0.61156862644557
H           1.26426568983895    0.95608712542717    0.26418520514275
O           1.97740924991254    0.64471263265972   -0.39384089358627
H           2.29466961971559    1.43455177325119   -0.83455815195677
O          -1.83206825370365   -0.07862311204591   -1.23206386205729
H          -2.56185881247689   -0.28900422522512   -1.81711961376851
O           0.77686484444247   -2.98218445125038   -0.19370694848293
H           0.10087871008499   -2.66898348418990    0.43195589988448
O           2.47833801957977   -1.61621730204656    1.26964324474179
H           2.84655531749638   -0.87398622213011    0.77939875119367
H           1.60351246911939   -1.30026583611955    1.56883579851006
H           1.61575023477817   -2.73886176317337    0.27660846834669
O           0.55022946911887   -1.01583440839385   -1.68504492004016
H           0.66106982247503   -1.94221262509306   -1.09816729019655
H          -0.38817213339319   -0.69652870443067   -1.50197736502479
H           1.16804087850440   -0.34419889642580   -1.20404570866314
N          -1.52518432582082    2.46682008237944   -0.86163629603052
H          -1.74146533980747    0.93676101642968   -1.20407328008721
H          -1.07240787150500    3.13677162179168   -1.47021782625730
H          -2.35381147377789    2.90437262878364   -0.47879608130535
H          -0.89689173152234    2.27480222366345   -0.06960281616214
