    26
        -50.45123030  Gyration_radius:  2.47030675094 Dipole_moment: 4.653
 S          -1.99811008549404   -1.05007859462859    0.80576432263842
O          -1.00806999471643   -0.15411786532483    1.36101466061431
O          -3.24040206265921   -1.10816280927763    1.48191238532479
O          -2.18803392643043   -0.67556282654165   -0.69496043244896
O          -1.38888892756644   -2.45861946623101    0.68914960713518
H          -0.62703574153794   -2.36344281871292    0.04063752593922
H          -1.96794835403780    0.28402632592406   -0.87337029776368
O           0.48046718106820   -2.15485026589423   -1.04627741537555
H           0.21773238758065   -2.66942180931338   -1.81207535504324
O          -1.56737125738284    1.77976687165158   -1.21549628145314
H          -2.34026673582587    2.34017612151965   -1.29962420631336
O           2.23680494096672    1.39823566447169    0.07128921619509
H           3.16360173210104    1.63817805735977    0.07315849718198
O           0.73724780398097    0.29841794897287   -1.93693349889008
H           0.56607507673234   -1.21418978399045   -1.37214641860307
H          -0.08235608242151    0.80764656954548   -1.94083109657123
H           1.33227903614777    0.75572528268691   -1.31328107796043
O          -0.20716836141165    2.37437913059828    0.88912156298403
H          -0.49296414761058    1.54982974887083    1.31970695905294
H           0.72145696824212    2.22037443387663    0.64189655598943
H          -1.05101706594995    2.11327558134682   -0.41379000629064
N           1.77228065645080   -0.84455636160578    1.38252208391598
H           2.18246889435912   -1.12784582168722    2.26309071941584
H           1.82147903421227   -1.63106089194295    0.74516068712306
H           0.78165730467304   -0.66238775296365    1.54393325242826
H           2.14608170653144    0.55426534128836    0.61042804077718
