    26
        -50.46607503  Gyration_radius:  2.43497642341 Dipole_moment: 6.134
 S          -1.37421294184909   -1.18813763077338   -1.45215656971404
O          -0.69894347652697   -1.97930349706950   -0.42285274684541
O          -2.67557417303471   -0.73144790512860   -1.08183631371880
O          -0.49413982146316   -0.09976988271441   -1.89819023501875
O          -1.52704878469110   -2.14949214109345   -2.70338418795223
H          -0.63674077048267   -2.43900513206588   -2.87918270572369
H          -1.12248583957868    0.99361367627077   -0.90244845322756
O           1.84281544497059   -1.59372303373427    0.25434114123015
H           0.94615069863551   -1.88374775140708   -0.02556136202221
O          -1.47518689690778    1.60585832307389   -0.20928801914228
H          -2.39635190712021    1.72769387436337   -0.45069302745561
O           0.95133140936260    2.38169838456007    0.69164641527526
H           1.04713441456979    3.33481534666041    0.70329234899896
O           2.01988322268941    0.55675907422717   -1.29088547280238
H           2.10476397374953   -0.90626662428158   -0.40297535587008
H           1.14604633265528    0.34852649859286   -1.67563924640946
H           1.86079576679183    1.30111220346770   -0.69629600494736
O          -1.48756721101118   -0.49120557388179    1.62615828009589
H          -1.76999681691030    0.27707794838017    1.10213626925104
H          -1.36664031408438   -1.19960119419923    0.96055727690550
H           0.04707114567512    2.19575426055828    0.36899561604188
N           1.02983354830614    0.00207659317469    2.11002102540391
H           1.47748558223084   -0.70921559185197    1.41172083663459
H           1.38534929709334   -0.11482950636346    3.05132370791846
H           1.19047818930601    0.95606752280950    1.75868910414565
H          -0.02425006229915   -0.19530824159363    2.05250766900079
