    26
        -50.46607504  Gyration_radius:  2.43500036695 Dipole_moment: 6.136
 S           1.70874820471587    1.40399160389982   -0.71953985510622
O           0.50197994714135    2.06885951645677   -0.22669687241660
O           2.71232112089387    1.19651833669209    0.27502080017656
O           1.34174225003746    0.16868873854941   -1.42455892469575
O           2.30710212671960    2.36439026891447   -1.82979986102660
H           1.58635210276653    2.48370216801806   -2.44092747486482
H           1.55939543142935   -0.78157658963934   -0.14715459956155
O          -0.78833488100970   -2.50801435531466    0.37698930598779
H          -0.72905398251268   -3.46256039402567    0.43213975552602
O           1.61526586634486   -1.31192435743232    0.68665784520770
H           2.54216818826617   -1.26573812976239    0.93222934164091
O          -1.95098985531463    1.23359771191578   -0.82131878587941
H          -1.08953858627075    1.67962905202563   -0.66199016559215
O           0.39982552872099    0.77053979871606    2.08391007526281
H           0.11661382589764   -2.16360820682724    0.51402132593586
H           1.01819006483177    0.06166838543672    1.83942057007400
H           0.51408694036598    1.43795639990485    1.37614484319357
O          -1.01115543549553   -0.92687328986615   -2.04272308853261
H          -0.10498551556599   -0.56680588654364   -1.97699961658292
H          -1.05237273641565   -1.62401454789657   -1.37551391265062
H          -1.74649261357698    0.50375138683589   -1.45285244385941
N          -1.91978659880945   -0.16947618155949    1.34235787313375
H          -1.01830485232029    0.21645902631914    1.78037373654676
H          -1.73741710692747   -1.13999314827183    1.05225734054665
H          -2.70515398672269   -0.11074223622197    1.97940422954429
H          -2.07020544719785    0.44157492966241    0.44914856799982
