    26
        -50.45468198  Gyration_radius:  2.69771415931 Dipole_moment: 5.729
 S           0.36745332321246    2.06598703119678   -1.80876386378898
O           1.70473029794440    1.54277205563142   -1.49902007163677
O          -0.46324672309402    1.11983365869247   -2.50905359401730
O          -0.24957562561874    2.61506469638707   -0.60891428344295
O           0.60656711232005    3.28683856525563   -2.79645475849105
H           1.20722039980406    3.84581251981227   -2.31214928197043
H          -0.44622936371840    2.10951958235399    0.91321575481180
O           0.49785195880392   -2.49225924688959    1.62290489977730
H           0.41199476612600   -3.23452102662779    2.22194999596430
O          -1.28945259101707   -0.67630996906935   -0.82077334482583
H          -1.15071366952864   -0.01908066932817   -1.54284404272480
O          -0.40545455413984    1.75368868094974    1.83934154957293
H          -0.49936315715887    2.51350989174933    2.41455382785903
O          -0.02838648365926   -3.07781958569548   -1.02244357726322
H           0.79532916451424   -3.20494913527497   -1.49406896472797
H           0.19107137323479   -2.98562451064693   -0.07538139403657
H          -1.08470509411542   -1.55689897102358   -1.18237171033767
O          -1.54770876085576   -0.80288093127733    1.93050289533485
H          -1.27843080489220    0.11653653997297    2.08452881239834
H          -1.87797877484699   -0.81284402766977    1.02050240791359
H          -0.27715645619568   -1.90360160712329    1.81155296693133
N           0.99582179880683   -0.05656539562117    0.37699556160338
H           1.46272305450276    0.54160515995281   -0.37788780607598
H           0.76662097148529    0.55174247575650    1.17546504262616
H           0.06602734271265   -0.36910937590773   -0.04575949728418
H           1.52499049551149   -0.87044642557655    0.68437248584751
