    26
        -50.45739756  Gyration_radius:  2.57190529675 Dipole_moment: 4.503
 S          -1.17685511485094   -2.33014214294522   -0.07844524395260
O          -1.32016335507681   -2.38313190987600   -1.51334748613332
O          -1.77169109625641   -3.39444811490174    0.66181600222318
O           0.42699459326285   -2.44394938420444    0.19689017766111
O          -1.46788218963652   -0.98736704378441    0.45632226559317
H          -1.63584309905380    0.29860059340640   -0.55649791501405
H           0.57441391808589   -3.34745718316784   -0.06071543023374
O           2.06590745019119    0.23186846980183   -0.59443214135282
H           2.89856327786612   -0.18289751046978   -0.82047221479109
O          -1.65379945429037    1.08332776071491   -1.15543249939805
H          -2.56198002454295    1.17941115603231   -1.44347544972274
O           0.21383195909630    2.41664049005157    2.30414221148310
H          -0.67562684283937    2.70285428124385    2.51702974726600
O           0.29111871050955   -0.49314734269781   -2.33037415516665
H          -0.24652049446158   -1.28577538916575   -2.10139152720609
H          -0.34229023062226    0.23778670343094   -2.27368544395519
H           1.40303899660657   -0.09557978927788   -1.27723208420466
O           0.49691525183395    2.59597186406997   -0.30544975667909
H          -0.31144905676952    2.18842273640939   -0.65996609320922
H           0.36262825357781    2.65891658629247    1.35243279386830
H           1.21111625067760    1.98089532794887   -0.51957149322489
N           0.65446101833516   -0.12853197421401    1.66652853130856
H           1.01248024347603   -0.78024271341114    2.35538192244587
H           1.31551797991797   -0.04888419610065    0.85531989056800
H          -0.25278534375039   -0.50480268677724    1.25479065159651
H           0.48989838870145    0.83166141157893    2.06983472021922
