    26
        -50.45468211  Gyration_radius:  2.69771758868 Dipole_moment: 5.730
 S           1.41209306781085    1.37480546702980   -1.94682738345608
O           2.10257126372047    0.09152962178931   -1.76113545860307
O           0.08835381117466    1.23187917746217   -2.49730209204056
O           1.45634073012167    2.15379391819155   -0.71678280564255
O           2.27262399282257    2.16924359555565   -3.01981774884012
H           3.14561976128085    2.17659416057530   -2.63824199471432
H           1.16056904581007    1.85164776851566    0.84278220942200
O          -1.50317682173473    0.36513970175353   -0.63316683790916
H          -1.05522613158798    0.79326414522047   -1.40045985697041
O          -1.06966813327431   -2.25804437897768    1.68815298035417
H          -1.54850181932056   -2.78055491110750    2.33229302070938
O           1.06824947402894    1.52612208074407    1.77633187309598
H           1.56546759701693    2.14080031317520    2.31672346541816
O          -1.44853329377581    0.34825096708662    2.13252166816533
H          -1.81055062524148    0.58835281671048    1.26733356778037
H          -1.23838211485970   -1.31181131249333    1.93069762922078
H          -0.62640470411774    0.85849071408828    2.20550778085211
O          -2.16206533596499   -2.26500474274325   -0.84662321154474
H          -1.82507138527813   -2.37160912522468    0.06364815288961
H          -1.97119468742962   -0.42044695725566   -0.96772300332837
H          -1.68648504922212   -2.88521667955674   -1.40013122499893
N           0.75015806732168   -0.70938936616913    0.26588181898017
H          -0.19858518903154   -0.31974092071952   -0.03254147386634
H           1.40004051653912   -0.54055931619569   -0.56771140308184
H           1.07403872984283   -0.12732797691656    1.05100018829959
H           0.64771922338770   -1.68020873047169    0.55559012977900
