    26
        -50.44955267  Gyration_radius:  2.67163365523 Dipole_moment: 6.804
 S          -1.72346658630564   -2.31485432567388   -0.78947832049133
O          -2.17735093263003   -1.93668190054095    0.55422658616966
O          -2.63619478101616   -3.11291879292048   -1.54130574182995
O          -1.70316539234246   -0.87492308810820   -1.58590978632897
O          -0.33599795924810   -2.73039590106939   -0.77366087636393
H           0.97651282565108   -1.76875699230781   -0.58567881980734
H          -2.36335383925232   -1.06275681856672   -2.24520709129193
O           1.55132316275891   -1.03104738793146   -0.26442850838097
H           1.48901749636024   -0.33985623236845   -0.94078280802756
O           1.60499814179774    1.44831454908980   -1.66648674713824
H           2.17894260971969    1.83101773060868   -2.33021313279949
O          -0.30769866326113    1.85132372358985    1.67914576433520
H          -0.76783135741360    2.58194818876430    2.09294874815361
O           2.34632195726480    1.63834346756248    0.88439559133222
H           1.47760718008872    1.79121170543030    1.29580340449756
H           2.52233388824536    0.69438184824500    0.94942597690944
H           1.98473515346303    1.67928547761716   -0.78531697757053
O          -0.98814755940626    1.67480005263250   -0.82120923750882
H          -0.13167761334522    1.70101073372373   -1.28290331169458
H          -1.36181519106707    0.80582565839578   -1.04019670369669
H          -0.61810136408202    1.83084330877481    0.72486685083957
N          -0.19502247725307   -0.86388576414116    1.72307076080487
H          -0.37963924374425    0.13155013723857    1.93346836773890
H           0.57626117982748   -0.91718923780955    0.99846227526174
H           0.05691620163923   -1.37973532275617    2.55877752991722
H          -1.07550682638257   -1.32685483753210    1.25818620693702
