    26
        -50.46379651  Gyration_radius:  2.4158142708 Dipole_moment: 9.068
 S          -0.17942153377264    0.22505665275704    1.93717141176654
O           0.33632550188874    1.30679004197990    1.05651215732388
O          -1.00331290275712    0.74667412276115    2.98278847420733
O          -1.08648290402615   -0.66187595289807    0.98826624122855
O           0.91241025391386   -0.65072296574046    2.31470304248005
H           1.58348426758264   -1.45469730723476    1.17197593467383
H          -1.95534291275350   -0.15139870464408    0.99666982341665
O           2.06761171831066   -1.88458590014046    0.40052042444420
H           2.71632291717383   -2.46534470286030    0.80091214618606
O          -0.11283231140209    0.09624709327242   -2.50467472215610
H          -0.29683309958112   -0.03985311847267   -3.43468037479497
O          -3.00529103971648    0.98369887736106    1.16778911619016
H          -2.57250154803108    1.25092665019906    1.99490971025123
O          -0.24541157503713   -2.13090560868800   -1.13033829339995
H          -0.76941545423005   -1.79480910650544   -0.38441679451777
H           0.62563668652820   -2.30398231496937   -0.74116135068324
H          -0.25716158315061   -0.78139349557996   -2.05448268447483
O          -1.45331467927849    2.08932447193939   -0.75872886714318
H          -1.21604657647601    1.47300104815257   -1.46205782718643
H          -2.68595685878491    1.58105219775745    0.46036272784274
H          -0.76754771299436    1.97317569316571   -0.07361830873183
N           1.90736911542836    0.52350213958809   -0.77171333663361
H           1.27827858909067    0.45784300721045   -1.59811356942662
H           2.69931101379291    1.13210901921949   -0.94333067869653
H           1.28181105569977    0.90790196352382    0.05175050497851
H           2.19831155258394   -0.42773378115639   -0.46701489714544
