    26
        -50.45555320  Gyration_radius:  2.61994948666 Dipole_moment: 4.924
 S          -1.34665948589744   -2.09667709056728   -0.76627962749765
O          -2.40846237420428   -1.12608473938891   -0.47778533986866
O          -0.98244947509308   -2.13478082754129   -2.15216106050365
O          -0.19696855564229   -1.85262818566166    0.10981734247751
O          -1.92584450956273   -3.51332564051323   -0.36112118341382
H          -2.19549586878460   -3.41351972089539    0.54868549361697
H           0.79764563390752   -1.01465496587989   -0.89246366790566
O           1.11285296475396   -0.45113568238024   -1.64277038588214
H           1.04308481600737   -1.03704240457799   -2.40326373461710
O          -0.32059966989701    2.35071671168651    0.61026974726056
H          -0.33168244074954    3.26188035286968    0.90366344124895
O           2.42140026207203    0.27702399020996    2.29840258192921
H           2.63628970114357    0.61211834289030    3.16919545611834
O          -0.21794036807727   -0.10503335648659    2.14328154398041
H           1.46621311420593    0.02779486410723    2.32435192329166
H          -0.48500844266543    0.71600509186457    1.70957310031708
H          -0.25957426690594   -0.80007531698136    1.45803141674503
O           2.09258710600600    1.63218168883571    0.01680891703774
H           2.37815488884112    1.17004839912190    0.83580406243343
H           2.00299201049993    0.93417713924109   -0.64551868604520
H           0.64123910342897    2.12675197814164    0.40674829381685
N          -1.19458778417379    0.91330090349743   -1.45900291724388
H          -0.27362298765821    0.45452592737519   -1.69045413835775
H          -1.61962743136022    1.33453766492354   -2.27770193344993
H          -1.81662669962428    0.12243864267849   -1.06591444274571
H          -1.01730922066442    1.61145624325972   -0.70019619246670
