    26
        -50.44614467  Gyration_radius:  2.62640304813 Dipole_moment: 5.846
 S          -2.43590946353230    1.47442203791193   -0.00531796991301
O          -1.23235459691126    1.29990213941074    0.78579465019115
O          -3.27101698748793    2.56378612769944    0.32697961086998
O          -2.00044261679104    1.55222693093229   -1.49268176624488
O          -3.25376420988393    0.15844541168399    0.04691489374752
H          -2.59789597704096   -0.57520479807986   -0.04606942786488
H          -1.00345502898357    1.57530886533487   -1.61987619144552
O           2.42075900781275   -0.72584876883577    0.61282267592456
H           3.36651559827013   -0.76672971984541    0.46515903542633
O           0.55722410048892    1.70206756987391   -1.84188992070329
H           0.72893449160011    2.52450106967903   -2.30348635030121
O          -1.03852891715109   -1.19695597824678   -0.03515913882848
H          -0.83652419464332   -0.31913315331863    0.33858420599398
O           1.12900734533027   -1.04285008022001   -1.67464569101152
H           1.01420465977158   -0.14776162529993   -2.02134446676111
H           1.99603452100763   -0.91179736378908   -0.26666173459018
H           0.26779833814632   -1.27403731217680   -1.27826810946967
O           1.41982831992490    1.81739918376373    0.58689849789573
H           0.52414761560287    1.77325294810576    0.95634864060686
H           1.82228773235083    0.93955366670063    0.74876002266024
H           0.95338798550974    1.80023672187820   -0.91694955690799
N           0.33773495286800   -2.52653382783665    1.82810934537527
H           0.05665142456521   -2.36616329548906    2.78683255221260
H          -0.67290203783255   -1.83216239935072    0.63737902873438
H           1.18377526803202   -1.98863088438979    1.65530366985389
H           0.56450269897601   -3.50729345609824    1.72646348454959
