    26
        -50.44751469  Gyration_radius:  2.55468348664 Dipole_moment: 7.612
 S           2.04176050186489   -0.07487092691834   -1.33924504085638
O           2.52617061757856    1.24241817889724   -0.72566679241753
O           3.13577806905435   -0.85112568990106   -1.78107673571782
O           1.14984043590051   -0.70794245410171   -0.37677283760682
O           1.17113980945638    0.34445555044001   -2.55229346743766
H           0.28320605635190    0.67531730568496   -2.24046720377423
H           0.61476723852136   -0.27415279032507    1.07943232870783
O           0.24304710517715    0.02501694307784    1.94843810603600
H           0.98256620378354    0.01561239882241    2.55913959278219
O          -1.15879965933590    1.22845131290520   -1.79930495021609
H          -1.73857431347477    1.11945850725462   -2.55535773485594
O          -0.89953167170552   -2.51254241136333   -0.39464649871437
H          -0.04887160120316   -2.07022525731750   -0.54558259336890
O          -0.93674674999424   -2.49068043495506    2.37444933982044
H          -0.55471056546730   -1.59701013922778    2.34581576804294
H          -1.84566307989206   -2.39720976310549    2.66491593452536
H          -0.85634993679809   -2.84510861725163    0.51814771419583
O          -2.07124106444370   -0.21853912395218    0.14258359980433
H          -1.77618125459537   -1.12870442017506   -0.12964501069991
H          -1.53063258340043   -0.00176860892677    0.90887264984133
H          -1.54763060164412    0.65504407827724   -1.06801333613904
N           0.49927968330152    2.42823591019634    0.23167652910409
H           1.69985630126310    1.77364726692253   -0.31457839340859
H          -0.21569221580899    2.37592897725372   -0.48710165425181
H           0.19220071164032    1.89351800349538    1.03888836943898
H           0.64101256384783    3.39277619426870    0.49739232718844
