    26
        -50.44751467  Gyration_radius:  2.55474527581 Dipole_moment: 7.610
 S          -1.89153312557065   -1.52900113127934    0.22489322585771
O          -1.41492032139238   -1.96057141879577    1.61538525122790
O          -3.28716501669682   -1.70551639239508    0.09898305103757
O          -1.38824097925361   -0.18306333834407   -0.01534895379037
O          -1.15185454680874   -2.46949916153033   -0.76195180514880
H          -0.20024148605525   -2.18638388688688   -0.85861415565019
H          -0.47167518060294    0.82239956445444    0.84798395075377
O           1.34347342169760   -1.78473519917461   -1.04728988077545
H           1.62018534657964   -2.14446198758569   -1.89205207198538
O          -0.80333863226222    1.40805021821062   -2.15567809999558
H          -1.24977384051601    0.80546945052705   -1.53955989824471
O           0.14008159317735    1.41279253141164    1.35775076317802
H          -0.35583624866506    1.68747396106659    2.13137034941663
O           1.55032768646019    0.79271291606966   -1.15283962877357
H           1.44065311606163   -0.78521219006757   -1.12737925807849
H           0.74231643596497    1.03733332077424   -1.67910915434450
H           1.37016546770325    1.10804468909156   -0.26145843793921
O          -0.31133315080384    3.52604933158027   -0.44059561741729
H          -0.88260988640037    2.28982491601714   -1.75334631695541
H          -0.10121862297462    2.87952645931050    0.25453811582256
H           0.51499015397782    3.93801401927746   -0.69844896829526
N           1.04699728584343   -1.37761851256788    1.79137298856303
H           1.53669454931110   -1.77686328327469    2.57998076789261
H           1.46976796003215   -1.70519611911951    0.92852286486017
H          -0.38050903342236   -1.73490093430630    1.72737958377761
H           1.11459708436611   -0.36466784180801    1.82551132516456
