    26
        -50.44751469  Gyration_radius:  2.55468580217 Dipole_moment: 7.611
 S           1.65433898538637    0.43610746571065   -1.74377504003477
O           2.42280346682163   -0.83592199317445   -1.37230816706783
O           1.88300572430704    0.78019822311676   -3.09435837766839
O           0.26384636232812    0.24039970983103   -1.35552651475658
O           2.23038796787377    1.53745666812635   -0.81615947778206
H           1.86821202563299    1.43312679147168    0.10746174023166
H          -0.51933667392860   -0.97061760646094   -0.63770566781559
O          -0.98358896873189   -1.69381599499296   -0.14352375295432
H          -0.99765213782569   -2.44331623374234   -0.74178136505921
O           1.32807974128022    1.31000904111407    1.61517635734188
H           1.41859303134452    2.17837162294427    2.01193302887884
O          -1.89638161321575    1.78172453282692   -0.71181683250130
H          -1.11773655220791    1.41241128417664   -1.15831565180623
O          -3.47984573325114   -0.48797605714653   -0.60981352285185
H          -2.62369971117466    1.17014781510812   -0.91835452560032
H          -2.68028624607558   -1.00443567391063   -0.41131761516033
H          -4.00056940731724   -0.45828913200049    0.19462116814529
O          -1.18422639905466    0.69058751409112    1.57423626595980
H          -1.22524525038545   -0.22231275103855    1.27196681333489
H           0.34175093236099    1.10524652622531    1.62039801920759
H          -1.51135054476681    1.22988888164856    0.80499283466359
N           1.74794685538630   -1.47283762681119    0.98786581208518
H           1.79337929726154   -0.61485415848765    1.52853755672165
H           0.78230753382969   -1.78569917721700    0.94994225868713
H           2.16824221186045   -1.13454383886526   -0.38251325262533
H           2.31702514225945   -2.18105585253693    1.43013790842802
