    26
        -50.45788865  Gyration_radius:  2.41150536083 Dipole_moment: 7.663
 S          -1.87240622716579   -1.24188129055032    0.31896266634094
O          -1.21455298659874   -0.29969051974991    1.27390791636911
O          -3.29265350971331   -1.16551076368719    0.38143732670563
O          -1.38928434064008   -0.74683799134884   -1.10790485985410
O          -1.25701170419952   -2.55147226260387    0.43421486546530
H           0.04952804684945   -2.38892382906391   -0.39766821853044
H          -1.61257213295885    0.20333421460604   -1.22240797779270
O           0.96795327822078   -2.23267945958101   -0.77087261288349
H           1.16994827521460   -3.00059696196898   -1.30650438766171
O          -1.52567513375658    1.85433774703321   -1.45772046863668
H          -2.40497638551628    2.21731921386858   -1.57294320711995
O           2.02847598576990    1.51830236267971    0.52296346812932
H           2.79924521922447    2.06082527148258    0.35409359029121
O           1.14689954093859    0.46209971926556   -1.69612957159478
H           0.95177529902402   -0.47543464419049   -1.52469702387510
H           0.30282849078163    0.87228096167367   -1.91834028318339
H           1.72700803241349    1.17216653944051   -0.36504216279470
O          -0.66433145048234    2.28873101523580    0.97334101240116
H          -0.98824800691760    1.40583716156382    1.24461951730316
H           0.30052575018755    2.21080442181494    0.94855330567785
H          -1.21338794343708    2.15574859808797   -0.56009814723214
N           1.23382180348489   -0.87378441168740    1.51349666988109
H           1.49222380066797   -1.29223849747593    2.39917621078558
H           1.40320274182389   -1.51754457552237    0.71699978449660
H           0.14160907813604   -0.66011000557555    1.47675071818039
H           1.72005446865056    0.02491797622740    1.34181188914705
