    26
        -50.45564903  Gyration_radius:  2.47623400816 Dipole_moment: 3.742
 S          -0.82652058100075    1.43131684591970   -1.66715184097571
O          -2.24687187556396    1.38231850177422   -1.84285402487876
O          -0.10779042538580    0.44336600642405   -2.46972326169920
O          -0.33531523508549    2.85865975902909   -2.17865973264911
O          -0.38989214922494    1.37595787172986   -0.27338415962949
H          -1.34844750283079   -0.10963141225844   -0.40425335120436
H          -0.89337202480820    3.05540788184367   -2.92584807334028
O           1.84493826264256   -0.80049911149796   -1.54545081653985
H           1.07608922484948   -0.29396787688337   -2.03046081658133
O           1.17211256876221   -1.05497375288485    2.19514102621853
H           1.45191835068772   -1.35935424094792    3.05858886511965
O          -1.74315638413817   -0.99513259259745   -0.42698457001825
H          -2.35376401145331   -0.96484736853243   -1.16745815964340
O           2.10029205237168    0.78013572623732    0.38854697348597
H           2.12605781554282   -0.13466668293150   -0.78629945463258
H           1.22969178510148    1.19373400770128    0.19670714319866
H           1.93876202993227    0.18451624939035    1.14472833553012
O           0.53900244275409   -2.38957288619985   -0.10003751687272
H           1.35577823033453   -1.57330774757868   -1.02384235667918
H           0.79823431816807   -2.06821955549031    0.78550260444879
H          -0.36926712507696   -2.05086170858676   -0.24311287477780
N          -1.10221126734728    0.27283341704993    2.32374077587762
H          -1.44142158683097    0.81989312728919    3.10483316419535
H          -0.92537883805586    0.90933388077151    1.54876660653200
H           0.29893132377736   -0.56944494767930    2.31771743867108
H          -1.84839940812220   -0.34299336109152    2.02124807684520
