    26
        -50.46043171  Gyration_radius:  2.42428098442 Dipole_moment: 5.358
 S           1.03030295284030    0.36849764779508    0.89389407050476
O           1.69000279977974   -0.00620137518854    2.12189327631054
O           1.82947440069961    1.12756912075025   -0.04131288525118
O           0.61707302865150   -0.98226205637764    0.19423203512096
O          -0.26417555067607    1.02887068396309    1.16173753402100
O           0.53418940713319   -2.23985553982960    2.71817666905049
H           1.06088170086088   -1.39912069242090    2.62867274844699
H           0.91025884702892   -2.83272396028313    2.06280713259519
O          -2.04641361243998    0.38478729183204   -0.73685301732484
H          -1.33940514175277    0.73260114192097   -0.15675981946870
H          -2.48967446291395    1.16260533783845   -1.08213016250352
O           0.20055922843795    2.59271953109132   -1.53985340653687
H           0.77866156094716    2.10341461240208   -0.91629219806520
H           0.64307923190374    3.42526134836494   -1.70974967087809
O           1.83561701928427   -0.75330179272374   -2.00712751797670
H           1.10244813429589   -1.01763828429058   -0.69950524912063
H           2.26407325908535    0.03780398835125   -1.65149206724125
O          -0.36467968726285    0.34920117259619   -2.97168503796789
H          -1.03056229362693    0.04885596987997   -2.33318929577050
H          -0.16536266122361    1.26035380987039   -2.68918780538116
H           1.07033846755592   -0.42552903756059   -2.54665587412376
N          -1.61111723619868   -1.01276009057626    1.87371284329061
H          -1.10513932356590   -0.06684369434498    1.68848810918739
H          -2.37022500589268   -0.91608929321469    2.54062710179783
H          -1.95328971210833   -1.31771298484977    0.96257714771421
H          -0.82691536084484   -1.65250289499260    2.23497533957621
