    26
        -50.44974530  Gyration_radius:  2.553507244 Dipole_moment: 5.645
 S          -1.87089126061850   -0.54208487813575    1.82819350763728
O          -0.61705691455711    0.17702350813839    1.75054813198851
O          -2.49435365727499   -0.62798679081999    3.09297375001559
O          -2.85837081858137    0.08960134955220    0.81230427589092
O          -1.63605212210070   -1.97357584707348    1.27789826261525
H          -0.92048733320428   -1.99109238952157    0.57898502865684
H          -2.38579000373442    0.46360176508180    0.01690810288885
O           0.30665665139247   -2.16382883834353   -0.42376191109604
H           0.55190946571230   -3.09022502859516   -0.44675755745188
O          -1.70320796814481    1.24285951225122   -1.21042288316928
H          -2.33164323888507    1.89142881050576   -1.53227185616837
O           2.19491061209303    1.25590034610337   -1.11978405776417
H           2.66174554692392    1.80603211634796   -1.74973136820558
O           0.36985843876705   -0.20627214117167   -2.37333578789538
H           1.57576476329160    0.69012661990425   -1.65018478609967
H           0.33104077228123   -1.01263344540208   -1.83451337833393
H          -0.44686820131440    0.27249312055449   -2.16486976740455
O           0.09579180745835    2.31448718081980    0.27140173498925
H          -1.00678707598464    1.75274568317955   -0.67814721681072
H           0.93872877554487    2.03192557984784   -0.13668531055691
H          -0.07920670721815    1.67593066952111    0.98592402666272
N           1.97445506631834   -0.79599549179065    0.99887821256011
H           2.38194628672721   -0.07531862601461    0.41089877625625
H           1.02909016440132   -1.67297490268449    0.11864343184274
H           2.69091861863622   -1.15412619506512    1.61565332541357
H           1.24789833208650   -0.35804169717069    1.56125531353730
