    26
        -50.45332220  Gyration_radius:  2.7314611716 Dipole_moment: 4.597
 S          -2.32391056501871    0.61163557209624   -1.53379020566137
O          -2.15154671703824    1.99747791096692   -1.89289429337549
O          -1.44796593759508   -0.27771997731291   -2.30146223635256
O          -2.19559754813073    0.36597065115424   -0.10063966929260
O          -3.81555065747977    0.21044095720773   -1.91140079187903
H          -3.96226014479022    0.64852484124901   -2.74518165659399
H          -1.12823298395495    1.64654575588635    0.27416917754731
O          -0.49314072195090   -1.16564798398595    1.28719449683285
H          -1.30907098148965   -0.77468986979973    0.91838828022246
O           2.98188533568532   -0.37766397334826    0.65053224421346
H           3.83881652767209   -0.36320054052002    1.07840628388391
O          -0.36110477223776    2.24334437849055    0.13087341626733
H          -0.67841811596163    2.80809920810220   -0.58437043159435
O           0.98930970332550    0.85932359516685    2.22830004126015
H          -0.11591930299030   -0.48290934946943    1.88563942362420
H           1.77691344341094    0.58342859557757    1.73055433583928
H           0.61684786218128    1.61417937871655    1.75755108117451
O           1.69613161831293   -2.76065717375784    0.94143539115787
H           0.83888833268852   -2.40217536508468    1.22830753385404
H           1.50465855237119   -3.52601124602027    0.39799657700207
H           2.62875778771350   -1.27930934609894    0.78377999820134
N           0.66081137167194   -0.04310484893356   -0.86623563522979
H           0.37757801326449   -0.64003046854160   -0.04564255750371
H          -0.08529577864539   -0.21367760669694   -1.61591401819955
H           0.53531087796831    0.94711794136402   -0.55622318553916
H           1.62210478074623   -0.22929103648482   -1.13937360987219
