    26
        -50.47039593  Gyration_radius:  2.41531695197 Dipole_moment: 4.716
 S          -1.15144491613526   -1.58234909259899    0.54516074468977
O          -1.43168834977882   -0.51931305849609    1.51400653561723
O          -1.50644553271205   -1.21554540848033   -0.80293918654478
O           0.21387360683519   -2.06166707779873    0.68984106257259
O          -2.09234991097913   -2.79254071299392    0.93876525504967
H          -1.73331603475705   -3.07069387904533    1.77429189273951
H           1.23415226200215   -1.01872232565828    2.20216513655628
O           2.01110801190430   -1.05005736215181   -1.00240209374478
H           1.41636847285035   -1.58204447339150   -0.43171906508483
O          -0.14185179308144    2.34460233065586   -0.99203254981852
H          -0.32032204064602    3.26362254278842   -1.19477614745875
O           0.95442608528601   -0.13367018660697    2.46911547163742
H          -0.00916476059100   -0.14895558036214    2.26518825861428
O           0.14083412400720   -0.03801980604551   -2.57679569378700
H           1.45227654143913   -0.79268874676236   -1.77405279487464
H          -0.53517122278060   -0.54445940840206   -2.08923352495904
H           0.05717756899310    0.87259749706237   -2.26352318216387
O          -2.35802411349118    1.25661363228388   -0.17981987291546
H          -1.00709740064384    1.96450247787340   -0.65533996423158
H          -2.11047491023793    0.75267770713722    0.62252066770316
H          -2.49079829024402    0.55172564356238   -0.82756024072939
N           1.89658611675320    1.14069469825917    0.35907862025926
H           1.15661769856898    1.70514237611427   -0.10327787998870
H           2.06296380363096    0.24871647175977   -0.25044576793593
H           2.74781761710952    1.67893997856283    0.47292008517545
H           1.54394736669678    0.77089176272003    1.29086425362913
