    26
        -50.44922933  Gyration_radius:  2.46943163195 Dipole_moment: 5.760
 S          -0.30842751619486    2.08926045311111   -0.71184461756889
O           0.94959033898538    1.40581039701589   -0.50855351928229
O          -0.36543557024560    3.02378843086981   -1.77073196870349
O          -1.41583232074386    0.99876690537798   -0.85269528199966
O          -0.73117769884381    2.75661028365808    0.61290653601207
H          -0.64790041132611    2.09768703277322    1.36113737795063
H          -1.28267619212659    0.45836789892381   -1.72336889924673
O          -1.02988737710652   -0.51458206769897   -2.81858802749421
H          -1.60623236681903   -1.27427327768655   -2.70716352077413
O          -0.43785674521047    1.08388888933068    2.58029710033438
H          -0.27192428202840    1.59557236517372    3.37388069854219
O           0.56875299700789   -2.29747392941109    0.78997714292785
H           0.52746140166822   -3.08390948429504    1.33565526872992
O           1.71961117566388    0.03732084994558    1.65696292716387
H           1.65985283269647    0.57457294968991    0.84412294970938
H           0.44277789158370    0.65675407044362    2.32204420421648
H           1.47550304338508   -0.86663497909370    1.38045462835766
O          -1.69349810805597   -0.92598125065985    1.11205499092599
H          -1.49863045590087   -0.36504960519469    1.87494963890712
H          -1.76983124062005   -0.30810836367889    0.36843376487760
H          -0.31628969483136   -1.86322713214036    0.86271690100411
N           1.30969992703830   -1.12180925911579   -1.86342907900232
H           1.21938345717196   -1.75704139086108   -1.07617469447703
H           2.12221263649368   -1.39143268172641   -2.40150133134154
H          -0.09233450429008   -0.81646650257497   -2.56028995473222
H           1.47308877298081   -0.19241060141301   -1.48125323472478
