    26
        -50.47039503  Gyration_radius:  2.41535127784 Dipole_moment: 4.699
 S          -1.13596335411804   -1.66153820284713   -0.27552272903658
O          -1.48922688624343   -0.73835163586271   -1.35717500735599
O           0.24962271922909   -2.05716660788093   -0.31221899024770
O          -1.57034914939360   -1.13718719289557    1.00959246491053
O          -1.98082336144399   -2.97604769983450   -0.52679661903189
H          -2.86912114882840   -2.68864657039936   -0.34607449707025
H          -2.49513230858243    0.73391638068049    0.79645106514273
O          -2.31120306619849    1.29707212739339    0.03356205289339
H          -2.07694065319844    0.63820121301707   -0.66025212662383
O           1.96014288798409    1.28714930657502   -1.00214358434052
H           2.56852845806634    1.78105455267190   -1.55297193907078
O           0.28334855530471    0.11971090044714    2.46022934045569
H          -0.42923888689983   -0.43582661698343    2.07837603276861
O           0.88282945043895   -0.57168233412441   -2.46458100489544
H           1.54227210241472    0.59999314115975   -1.60187074592291
H          -0.07416510836416   -0.52545798284735   -2.26119797853991
H           1.14862786603973   -1.37941541967779   -2.00561233327830
O           2.25971480943764   -0.79517565551491    0.95755912561399
H           2.40303211331585   -0.08129111641430    0.32181130428788
H           1.12046343933279   -0.28624089302618    2.13093577003371
H           1.63756125133633   -1.40888307778601    0.52447554455969
N           0.08417403178784    2.09106248205666    0.80458518563500
H          -0.88964722724454    1.91870233964016    0.41540857866291
H           0.20675424539850    1.34258993302131    1.59158750536967
H           0.79840135663717    1.90067206053833    0.07406738810359
H           0.17633786378610    3.03278655888371    1.16777620697812
