    26
        -50.45379737  Gyration_radius:  2.75460234897 Dipole_moment: 4.864
 S          -1.72227223386828   -2.33497776446122   -0.37455063111294
O          -1.20049473726978   -3.32540133369342    0.53296103694316
O          -2.50785605662824   -1.30480009564315    0.31032584632205
O          -0.69947222778117   -1.73419109956503   -1.22574037482085
O          -2.72240121933356   -3.07994938042984   -1.36156629297744
H          -3.20251255408625   -3.67291275353569   -0.79034548813766
H           0.57885767012931   -1.85415771907520   -0.12201147577451
O           0.15539661943888    0.77909577911462   -1.58284710019582
H          -0.21396821618875   -0.11022621873065   -1.74467083771835
O           1.05121554752918   -1.79558609613797    0.73822006483703
H           0.72863583345345   -2.57793872292795    1.19997553750739
O           1.27306863920509    2.30972750976355    1.48672516624246
H           1.83628382220267    2.94416330282020    1.93097685491774
O           2.45210242300671    0.45183538659393   -0.24841706098024
H           2.33111998908984   -0.43838535458751    0.10402906786605
H           1.09986495544487    0.63180629396825   -1.34378315483474
H           2.19495117567499    1.06083462481924    0.46477995196992
O           0.15513777036190    3.36845929789534   -0.73685507121525
H           0.85951488271859    2.78516861884564    0.73398459714799
H           0.65332003026494    3.93129395714963   -1.33151330961655
H           0.00261767837042    2.53589869583023   -1.21759644472184
N          -0.62816136466300    0.31284649886182    0.94877638417886
H           0.11594698567566   -0.38702686919087    1.15914904214309
H          -1.52973684851805   -0.25250566769687    0.80612375147225
H          -0.66970514330003    1.04013903944453    1.65698899145484
H          -0.39145341094122    0.71679008060197    0.00688094910617
