    26
        -50.45634904  Gyration_radius:  2.66555862736 Dipole_moment: 5.750
 S           2.31038621774469    0.78772783610832    1.17763091933924
O           3.10963052569183    0.44820898771846    0.01991290465441
O           1.50131352455192    1.99293161933698    0.95669878402761
O           1.50724864931081   -0.29657077594731    1.69356521364245
O           3.35209028655575    1.17137533267071    2.32165918312466
H           4.05692585639149    1.57106565368263    1.82121780369979
H          -0.09880749894825   -0.68929668160707    2.07065795822899
O          -0.88972332938853    0.90379299517119   -1.96344783356176
H          -0.57408640670925    1.48616077104633   -2.65551949751361
O          -0.85335458579688   -2.45277748637360   -0.24120218302698
H          -0.63640190786054   -3.36134817443972   -0.45146295837622
O          -1.06442066216052   -0.78436375753279    1.92069415296160
H          -1.11982044579422   -1.49163856784535    1.25610777129935
O           1.06269379157602   -0.60875446294445   -1.25251361859420
H           0.69801660557227   -1.27326425959725   -0.65006652920835
H          -0.09926813520354    0.32305417002650   -1.72285327684574
H           1.86503454059069   -0.24098713157810   -0.82313832708587
O          -2.48908491958041   -1.31566239955337   -2.07008426206035
H          -1.45136086321305   -2.13241560514625   -0.94969851169232
H          -3.34954712472695   -1.05007668245486   -1.74219092217557
H          -1.96463326836983   -0.50037695346825   -2.18077225787814
N          -1.00792168300434    1.51845675486017    0.69092684496218
H          -1.13317119650478    1.39426447996078   -0.33066951412480
H          -1.16493048848829    0.58577805927074    1.20089184921104
H           0.03482862999983    1.76194600250959    0.84535286178228
H          -1.60163614219397    2.25277025611458    1.05830345516992
