    26
        -50.45634861  Gyration_radius:  2.66568569766 Dipole_moment: 5.752
 S           2.11522194836833   -1.67644167761701    0.24967010828099
O           1.71109278820816   -2.12270953326719    1.56567611660333
O           1.25024815772098   -2.21613175608988   -0.80701969988907
O           2.27197340331293   -0.24612367489588    0.12059291852197
O           3.55236235419805   -2.31963971307182    0.00048781269872
H           3.48156602200134   -3.14769028024868    0.46561812593565
H           1.72821538138266    1.06659831654340   -0.80465774600387
O          -2.24658772058774   -0.64671749163562    0.03394236291123
H          -2.72749618357724   -1.44285787568405    0.26351239136134
O           1.07455972827533    1.65945887578359   -1.23505342434312
H           0.64141397606460    2.09926626090474   -0.48408400277111
O          -0.22778188145121    2.36953766679491    1.06766786535086
H          -0.10525029892054    2.91669374634603    1.84382035970041
O          -0.28361326662737   -0.40908520637010    1.67622153348790
H           0.45075344421786   -1.05979135929869    1.69822241467447
H           0.11229700763411    0.46019784905777    1.51772985242925
H          -1.49549110980770   -0.58634347516027    0.70617284383716
O          -2.83423054545832    1.99420480724209    0.45263744439667
H          -1.19503085225310    2.29831323946262    0.92058384160351
H          -3.11171378806510    2.35106204965942   -0.39243941776419
H          -2.77415503047559    1.02632165201862    0.34494929330978
N          -0.30115649206082   -0.46749918689927   -1.86880779075126
H          -1.16872301813216   -0.52723096704204   -1.30451089685531
H           0.18932025430286    0.47318867465093   -1.69796158571305
H           0.37079664448632   -1.22066015647607   -1.47923085569968
H          -0.47859093278426   -0.62592078472690   -2.85373987531619
