    26
        -50.45021867  Gyration_radius:  2.46536224719 Dipole_moment: 2.808
 S          -1.01566247005218   -1.83578833304303   -0.12033292615697
O          -1.13507830647120   -1.70577056952300    1.31881523152543
O          -1.45448752979944   -0.64012779971944   -0.83153840645781
O           0.30584397685449   -2.26754656757803   -0.52996774550595
O          -2.03055900224747   -2.96731090556471   -0.55775915790725
H          -1.78945193748741   -3.69433602782130    0.00627710782800
H           0.72240504095419   -1.26096479100862   -1.87033580518361
O           0.77137263843509   -0.52098747557080   -2.50471200898428
H          -0.14642086111206   -0.27361101208103   -2.65022622757176
O          -0.34231288795282    3.06622251305324   -0.83940049127947
H          -0.05330046972871    3.85873991552050   -0.38443372211603
O          -0.41817587396512    0.62598673355888    2.20481943223444
H          -0.74204981579581   -0.29851891858187    2.06288888090157
O           1.61280423908403    1.37327951715311   -0.82452071672234
H           1.41651411471567    0.74026100419148   -1.55438748246294
H           0.45371935563982    2.45990772619638   -0.89877385259966
H           1.73418033473670    0.81825864910067   -0.03993826470280
O          -1.89253450338134    1.49642050780583    0.37707845131996
H          -1.83645223344794    0.61661896745357   -0.16924642840958
H          -1.32168375291027    1.25684868301189    1.22387576746237
H          -1.34066613732274    2.19839826414903   -0.15541747095671
N           1.90067013356123   -0.63029070997967    1.19465597386442
H           0.50771997625883    0.59148213579196    1.91555007403248
H           1.88540830428362   -1.01818182151256    2.13271487967224
H           1.34765238884115   -1.27069287766651    0.61939504595522
H           2.86054526832615   -0.71829679733887    0.87491987230202
