    26
        -50.46942323  Gyration_radius:  2.44411244134 Dipole_moment: 5.029
 S          -0.00806137938830   -1.04006554174429   -0.53616761133798
O           0.52786453301113    0.26988035831641   -0.93645844456318
O          -0.78537302702923   -0.92787981887999    0.69484714223756
O          -0.95508968298294   -1.51348003432043   -1.65521099633440
O           1.08012634745821   -1.99241479803584   -0.39275489493374
O           3.09440588166349    0.81210642225059   -1.15463229036089
H           2.11513001452010    0.71518991374513   -1.20274267076567
H           3.44241798579530    0.30271225668577   -1.88860620847561
O          -0.98970342984160    2.22009681374061   -0.15676428170926
H          -0.85176873580600    2.96381576827563   -0.74587369572383
H          -0.37610965480814    1.50956851024722   -0.46010765086480
O          -3.44653320064115   -1.19300901606081    0.72255029444145
H          -3.61927051739586   -2.11596903983659    0.53002242353306
H          -2.48287659433887   -1.12325000675217    0.87562807000676
O           0.47331163800545    0.89779927732502    2.06682788124116
H          -0.12396393402774    0.19794287980619    1.71663165773850
H           0.16968913847399    1.69807157021825    1.62181903690840
O          -2.69579101768460    0.34271365396546   -1.35515643085644
H          -3.21640225152909   -0.10506382214935   -0.65617156161358
H          -2.24610735808983    1.07965393624699   -0.90211784463726
H          -1.67318119458467   -0.79656665008148   -1.66165230859390
N           2.54248503767622   -0.44633821078037    1.12178529781041
H           2.00899935926686   -1.20723790556785    0.59867840936104
H           3.02171653859291    0.10838060738756    0.37194197942811
H           1.80507069905032    0.17355695161289    1.58065616362971
H           3.18901485462800   -0.83021407563287    1.80302851444363
