    26
        -50.46306736  Gyration_radius:  2.5452404563 Dipole_moment: 3.905
 S          -1.20007164051341   -1.65810406371950   -0.93594559028427
O          -1.19124945030320   -2.15022153497226    0.44130340165153
O          -1.27849717677377   -0.21145069500433   -0.98877555605364
O          -0.09666928317298   -2.20052371700738   -1.70282504715001
O          -2.52698690252926   -2.20153749236748   -1.60241644179142
H          -2.30786507329075   -3.11764566535762   -1.73586629012416
H           1.46222868970224   -1.69317368596429   -1.34675838043279
O           2.22121748596033   -1.26262300471901   -0.88906699814919
H           2.10591308110377   -0.31543386075182   -1.05681983580343
O          -0.49450452224494    3.45648999949687   -0.64658806573652
H          -1.05151635997566    3.70764900961914   -1.38432783127704
O           0.83756642167707    1.12888504938759    1.82792631363998
H           1.30768849283849    1.87511623385052    2.20155593550685
O           0.94710234474850    1.20070528944148   -0.79703210949960
H           0.92722924171083    1.20996409389522    0.83617319813653
H           0.15186639312022    0.65331730553497   -0.98225219768856
H           0.62739622623634    2.12139384239356   -0.90934594523127
O          -1.82758911871011    1.68565987931851    0.87406991215674
H          -1.07307287027312    2.93963007623949   -0.03700896340762
H          -1.83148429847295    0.97065232832295    0.21219031600685
H          -1.14072738401902    1.44185719588567    1.50747900970024
N           1.10082587248930   -1.52663412901988    1.45377088441606
H           0.12736669510297   -1.83087406061744    1.12149056221441
H           1.70087345897273   -1.47557189206955    0.56323328752625
H           1.02762805631384   -0.56702551277825    1.84395880867772
H           1.47533162028366   -2.18050097902684    2.13187764298427
