    26
        -50.46571672  Gyration_radius:  2.43850831729 Dipole_moment: 5.127
 S           1.18216920408176    0.91811953377119    0.78905232507293
O           1.14339610178875    0.28832452081458   -0.54510759076503
O           1.55047415576111    2.30896998610446    0.72460423293143
O          -0.34516000661547    0.85198444113309    1.28627385439871
O           1.87983825569410    0.10040288381973    1.74320316762575
H           2.76850985713008   -1.72281023018324    0.77962557240220
H          -0.88518538877602    1.39730280131948    0.66001216000319
O          -1.64046330230964    2.26933117072265   -0.50602464318376
H          -2.03033979190918    3.07004988537322   -0.15104870821871
O          -1.96583068618842   -2.45854931419397   -0.31542290487597
H          -1.78554279844901   -3.18702479201256   -0.91215831830011
O           2.12813753213835   -2.03433869917405    0.13047136058190
H           1.84867273487859   -1.20599936024450   -0.32681603177742
O           0.62086067123963    2.84581871064561   -1.64326171375389
H           1.08374409488759    2.80052130613866   -0.77220839733793
H           0.91915417416782    2.06044178506386   -2.11134737772670
H          -0.84021998542238    2.56127574290416   -1.03531782649164
O          -1.23002170424097   -0.29863102053033   -1.59059640260325
H          -1.79452942190853   -1.63077147755805   -0.84338949933489
H          -1.72283587298266    0.50533368278254   -1.38957775686551
H          -0.31454252181783   -0.12158456399949   -1.28362648112545
N          -0.12472482953342   -1.87814857482275    1.48388798326207
H          -0.15889091899628   -2.32315333234561    2.39540872339415
H          -0.91312887293896   -2.20183209040475    0.84739371238786
H          -0.18615905097056   -0.84908667218184    1.58929723564622
H           0.81261836126018   -2.06594632290972    0.99667332466327
