    26
        -50.46846769  Gyration_radius:  2.39942234577 Dipole_moment: 5.640
 S          -1.20703996247938   -1.12825341037354    0.76323638942644
O          -0.12346363481292   -1.76050713571641   -0.02814866124998
O          -1.43905857401748   -1.81985474246685    2.00234764720680
O          -0.89053473717573    0.28125398979582    0.96382424767806
O          -2.49224334711669   -1.20269084627942   -0.11524638405070
H          -2.33410302510335   -0.59698795714456   -0.87888925206035
H          -0.12314543790552    0.48274002534274    3.24285024089929
O          -1.91094209028485    0.30213443531597   -2.23377850666293
H          -2.42562556799453   -0.03328752745082   -2.96988627080369
O           1.89910692159549    1.42748499429200   -0.76198688425313
H           2.48611181998114    2.17705464201510   -0.86795982247652
O           0.34215118771871   -0.35679975173259    3.30685277453830
H          -0.32181123478391   -1.01324023519951    2.99105433020200
O          -0.55795330050602    2.27112778074851   -0.68159191136036
H           0.96954958866819    1.80659037382478   -0.74277035511579
H          -1.10263547182995    1.98179471771955   -1.42290546444128
H          -0.77458916852872    1.62818944111196    0.03162116204285
O           0.54373946000046   -0.58484713503104   -2.29667910861612
H           0.33972271194273   -1.16203006591507   -1.52851689760873
H          -0.97489364588039   -0.01531263817707   -2.37512710880017
H           1.15333141902041    0.08623631241438   -1.96014040169540
N           1.82857056682042   -0.54600148200539    1.12027912741333
H           1.93485928240827    0.31320388589371    0.53994867329534
H           1.10979398799305   -1.16004302240263    0.60830688535088
H           2.71421119449660   -1.02642221547380    1.24052332236198
H           1.35689103775429   -0.35153246311985    2.05278221877695
