    26
        -50.46269066  Gyration_radius:  2.40632345667 Dipole_moment: 8.513
 S           1.27156959273034    0.88839140280208   -0.33731386891076
O           0.68318398216698    2.11176279836849   -0.89215720805731
O           2.69603856396032    0.81781150523559   -0.41499468935178
O           0.90542283840343    0.90185418761187    1.20353260072154
O           0.58919552715139   -0.28525147750229   -0.90043207068527
H          -0.52938950788985   -0.40142789279027   -2.12122805071425
H          -0.07006391036963    0.89745705297090    1.27843389288106
O          -1.26364088645418   -0.25338774034940   -2.76257485554773
H          -0.84837816982722   -0.11811716370113   -3.61563953331552
O           1.22398914963448   -1.65644253110295    2.47242407934532
H           1.31166148065283   -0.70374759130830    2.57864049256981
O          -1.76526291653852    0.58747632704836    1.38233144245677
H          -2.13851783333507    0.60255495338596    2.26473351054071
O          -0.86999549710678   -1.71855717891628    0.82938478377571
H          -0.34516919227820   -1.38450028355217    0.07676671798840
H          -0.19813879000019   -1.87309474656838    1.53701116708913
H          -1.53715359429362   -0.39152341535428    1.18541992268737
O           2.75418981168124   -1.76177380284573    0.25742545231881
H           2.89743293406251   -0.81694230288708    0.05605069609536
H           2.20748960615897   -2.08802912305283   -0.46097875596976
H           1.88658956141252   -1.88095837837589    1.78518250353754
N          -1.81250352287129    1.72117252927949   -1.08353714932880
H          -2.38963084899946    2.52129217644867   -1.31730012128180
H          -2.06523634510037    1.32371582106605   -0.16275918622575
H          -1.84901800234365    0.97350945175118   -1.81977418824895
H          -0.74466403062749    1.98675542233671   -1.01864757438750
