    26
        -50.43702525  Gyration_radius:  2.45421976144 Dipole_moment: 9.996
 S          -1.84508525263032   -0.92164114972102    1.39166552834763
O          -0.75604506645315    0.01708696873393    1.70761724253738
O          -2.88314220205319   -0.96705534475728    2.36097360254880
O          -2.29797754483123   -0.68845466534602    0.00572398815447
O          -1.15067521553189   -2.34913837043011    1.32455261844336
H          -0.66508432357529   -2.28613585320253    0.49431092258596
H          -1.96075834380638    0.42075873954095   -0.78724729107778
O           0.67182061469916   -1.96716974179148   -0.76630726146823
H           1.16270112493411   -2.71764265658145   -1.10330817155050
O          -1.68160534737334    1.16731312454449   -1.47828870563418
H          -2.35559495484728    1.13394709990593   -2.15940628708483
O           1.87999226383698    1.71404637061683   -0.53660571508677
H           2.23571708836848    2.51814887478685   -0.91786052608965
O           0.53823391423826    0.20621049471200   -2.06395762883360
H           0.55020449415346   -0.71863950831913   -1.61019244847166
H          -0.43666779135068    0.61222994965514   -1.88135563311387
H           1.16576482714016    0.80199097649337   -1.49236917179998
O          -0.29412375219286    2.33873543102324    0.65743265775244
H          -0.49739502611228    1.52258481472371    1.18315969728566
H           1.07362941494260    1.99709984877790    0.01903782662863
H          -0.95996305412290    2.33942124892977   -0.04110810511111
N           1.79135627912470   -0.81368568025369    1.19810764461328
H           2.26939668375514   -1.31903178125213    1.93133261375570
H           1.21336330332013   -1.56285330156016    0.04286589230294
H           0.89174987387938   -0.47819126969200    1.57319170595689
H           2.34018799248314    0.00006537043337    0.94803501440305
