    26
        -50.46269066  Gyration_radius:  2.4062455109 Dipole_moment: 8.515
 S           0.56248558781565    1.25088893202501   -0.79976057764879
O          -0.25839669490061    1.26279741279573   -2.01492507429278
O           1.63301095288245    2.19630336319434   -0.78848050302651
O          -0.41421765626064    1.66355644134283    0.37679474214357
O           0.98492887689087   -0.12566000398478   -0.50457508520030
H           0.83042161508441   -1.51715072893375   -1.39608952227971
H          -1.12903876391413    0.99684351033350    0.41872700147129
O           0.53292929500346   -2.23818918676998   -1.99944806060430
H           1.14495765454816   -2.23715699838243   -2.73696107426089
O           0.61300782488782    1.03365310733058    2.98489588883652
H           0.10624423344090    1.66622903038445    2.46565964098007
O          -2.19442915769384   -0.33936758176532    0.66346384764468
H          -2.87221752213367   -0.21554930920241    1.32938399897832
O          -0.05704366219029   -1.20746931100588    1.71354115499621
H           0.16948074194522   -0.50605233508155    2.37139731532139
H          -1.41076141501059   -0.79995355735864    1.13582585457876
H           0.47679437210622   -0.97491812282535    0.92967954369782
O           2.76604571001530    1.11073253133540    1.36719570105182
H           2.89184596619477    0.22933817182640    1.00823674554948
H           1.51681656093829    1.08653735752294    2.60794151594395
H           2.44543490871293    1.64542808902284    0.61550209787207
N          -1.70306702185347   -0.81759139534978   -1.96285148081252
H          -2.43388446127482   -0.89120459659962   -2.66170177139212
H          -0.98075979008259   -1.57349723912900   -2.05910079361335
H          -1.13065815550610    0.11932332092190   -2.06066652098059
H          -2.08992999962190   -0.81787092162963   -1.00368459496803
