    26
        -50.46373151  Gyration_radius:  2.44860050891 Dipole_moment: 3.677
 S          -0.65955219998639    1.71578933022064   -0.73470647292081
O           0.22143416422759    2.81736415561181   -0.97177575201516
O          -0.28571354632231    0.51158425949857   -1.48593816985112
O          -0.91312745222094    1.38981101402079    0.65811095282823
O          -2.09198563430274    2.13653276661325   -1.32205586793661
H          -1.88670255381479    2.88434295728277   -1.87429034363430
H          -2.30657659859340    0.45174775537872    0.61519078952363
O           0.72021595594125   -1.66840386432805    2.02423689017623
H           0.28041910843858   -1.68533481881452    2.87524389116422
O           2.30030872701524    0.81909303501745   -0.98878762483455
H           2.48755689154716    1.74607821114699   -1.15757654107667
O          -2.99597173988715   -0.20093681268419    0.36455331036912
H          -3.48374770428990    0.21951291970166   -0.34640002963003
O           1.86002592621850   -2.09889062943497   -0.66117571007702
H           1.38610198782758    0.69091687133240   -1.30915311994891
H           2.24314151738623   -1.25437830201051   -0.91962921984655
H           1.99239398086326   -2.17253384546086    0.28816535150121
O           1.51446768896364    0.76851836862888    1.62103696507685
H           0.64144640914486    1.15177444182616    1.42148937904050
H           1.10074440273971   -0.74570929359765    1.93411285737341
H           2.00015837228455    0.79192494704256    0.77442413687261
N          -0.83701304133486   -1.68314371736183   -0.15963340062584
H          -0.73070378729745   -2.54365210475739   -0.68819180988170
H          -0.49559794050823   -0.87064879670975   -0.74601588417404
H          -1.82131773970676   -1.44009095065613    0.07761645363285
H          -0.24040519431562   -1.73126792752133    0.71114895889094
