    26
        -50.46373078  Gyration_radius:  2.44857171632 Dipole_moment: 3.671
 S          -0.23488905992989    1.95850228018916   -0.17169571554150
O          -0.23514740383581    2.81800051249840    0.97161012041859
O           1.00984216331428    1.19467196105800   -0.31510313865027
O          -1.38790212895496    1.08561814075521   -0.31279141496344
O          -0.28280594985691    2.90997617601866   -1.46270045093438
H          -0.06779525901733    3.76611982285563   -1.10619193694806
H          -1.34812681388594    0.61195143453469   -1.92373268928740
O          -1.05162465037838    0.32465161824565   -2.81468407389944
H          -0.73172557171272    1.12512487710187   -3.23552362547584
O           1.15460571298588    0.65403025799952    2.27657298449510
H           0.97597228548447    1.48469434853722    2.72479628085144
O          -0.88899323534514   -2.53655209723334    0.42652765838053
H          -1.74378354887035   -2.85353128731127    0.13198670352130
O          -1.31321761498968   -0.43967647393788    1.89432251535578
H          -1.53251072770682    0.17592111129154    1.17183057177570
H          -1.08249565498992   -1.78911928299134    1.06553931107407
H          -0.45286983218556   -0.13067000360711    2.23702694064525
O           1.93682571239513   -1.89632070828719    0.97324679999213
H           1.17540725714126   -2.43379011300945    1.20900801764622
H           1.23735756437229    0.89650646597194    1.33364629970864
H           1.92278020755505   -1.13840123541037    1.56664472950710
N           0.59573365944457   -1.18075470981765   -1.34857156157648
H           0.02028319799739   -0.86282115922555   -2.15630548252183
H           0.01941332014046   -1.76292997730459   -0.68114437336250
H           1.43463718929211   -1.69269967665535   -1.60397783145589
H           0.87102916163330   -0.28850225224606   -0.85033663872459
