    26
        -50.46373071  Gyration_radius:  2.44857075537 Dipole_moment: 3.668
 S           1.88356931594091    0.02155017979162    0.60872111682567
O           2.59202209089264    1.24725850960775    0.81267269675949
O           0.67974367941848   -0.09072130203204    1.44049721053728
O           1.58339756839836   -0.31863360629782   -0.77163079115085
O           2.84541946687301   -1.15663677909513    1.11973747215938
H           3.50993611940166   -0.69040405212745    1.61710848504343
H           1.23653287487519   -1.96161305905256   -0.72160244050839
O          -0.02974125911760    2.42906984225712    1.02021976246913
H           0.77091024515688    2.94612452772216    1.14054433401909
O           0.90654374771665   -2.84748953918525   -0.45613621964651
H           1.52319311237745   -3.14702724286440    0.21483851430439
O          -1.95302115694380    0.06688465438184   -1.89399195454926
H          -1.86496682209369   -0.33614260291526   -2.75868826238514
O          -2.58902372308034    0.93284066794619    0.85144109039841
H          -2.77221359044386    1.03870163328797   -0.08632465050131
H           0.21279474520639    1.52932888659736    1.31436155683060
H          -1.93220048975429    1.60108809700159    1.07254021650472
O           0.03558511968223    1.70864422324053   -1.60818299583450
H          -1.23363875991973    0.76297494089752   -1.84482090890409
H          -0.06524056979146    2.15923760278550   -0.74798738987089
H           0.72931214412678    1.04033474617431   -1.46310599123266
N          -1.23675646833837   -1.40920227744777    0.22777322272281
H          -2.03599522396446   -1.64145201337841    0.80944289276021
H          -1.56406572694770   -0.86391335769394   -0.61605995547527
H          -0.57356701326836   -0.79416025001729    0.77741287764523
H          -0.65852941640293   -2.22664241956786   -0.05877987894893
