    26
        -50.46648381  Gyration_radius:  2.45842163864 Dipole_moment: 1.129
 S          -0.82592984545320   -1.46082085653988   -0.49409217140817
O           0.50850451030630   -1.64075484720418    0.06293914453684
O          -0.88593550311974   -1.60438580558862   -1.92260900212645
O          -1.71597505361110   -2.64772728937028    0.10193668651145
O          -1.43154834472339   -0.23349122777550    0.00808968599828
H          -1.72243285701833   -0.66662266149775    1.65726542180470
H          -1.92014798192650   -3.16972518654692   -0.66782224502209
O          -1.65262138764567   -1.02463217182275    2.56058358936494
H          -1.86158720627176   -1.95709670920799    2.47859133237318
O           2.33355880333859   -0.11554588597659   -1.03499506141614
H           1.71196377617620   -0.81057210043331   -0.71630913264865
O          -0.25570373202907    3.29577205130130   -1.04176765546128
H          -1.11677419772906    3.67952954949527   -1.20948775956573
O           0.98706477224229   -0.39158827843395    2.49292374030760
H           1.02579682542511   -1.00779475375212    1.74192092896482
H           3.21715017409144   -0.42542493358789   -0.82975838632842
H           0.09387770537754   -0.53856998302253    2.85540873182420
O           0.05975847641215    0.90220792415885   -2.38273964979277
H           0.99338994705128    0.66467374465551   -2.37025348661604
H          -0.42091559104453    0.05898938666382   -2.34192368971856
H          -0.18761464966195    2.52215005293121   -1.63356008908685
N           0.62714837311253    1.34882660709308    0.55632542936190
H           0.85267393044496    0.99881414499027    1.52021186700905
H           1.38492399467321    1.04667838049585   -0.08324740479368
H          -0.24008188437177    0.82565573084706    0.26935954661905
H           0.44145694606331    2.35145512821377    0.42300961917592
