    26
        -50.45388684  Gyration_radius:  2.70452133707 Dipole_moment: 3.720
 S           1.81231048050746   -0.03849934916887    1.66374108035654
O           0.39500478728919    0.09234518255688    1.97663522883836
O           2.69206703844532    0.74349002659988    2.46872567463955
O           2.18183910142389   -1.57474314625014    1.98203617841597
O           2.01740790551896    0.07055372868689    0.21429530712378
H           1.90910415819510   -1.55087356237630   -0.38171792155457
H           2.63206977127010   -1.45386761097606    2.80981620355580
O          -1.93578501659125    0.42864147880067    0.79311843588426
H          -1.13456804320383    0.49597462436350    1.35901633480820
O           1.59086867078390   -2.40281207915865   -0.74089579863600
H           2.14703256131997   -3.07254822604562   -0.34054048756799
O          -0.71555811927861    2.13848918816741   -2.72151751875831
H          -0.04776107947911    2.82575705781253   -2.74927222365730
O          -0.72183607756646   -2.09151532567804    0.78438984980293
H          -2.27817448656314   -0.45358438394428    0.97816591817890
H          -0.01657902965983   -2.47893923357725    0.24547174956062
H          -0.26375027584316   -1.47836917146444    1.38170468707846
O          -2.43050810608028    2.69102962358911   -0.72151664920641
H          -1.39482588636296    2.44105394026060   -2.08142925305050
H          -3.37748001368101    2.82020477618311   -0.79009266195359
H          -2.29395041807372    1.97612114311763   -0.07749058107706
N          -0.16098693830579   -0.03011444933806   -1.23326090858079
H           0.73499082914792    0.11366981565378   -0.68103253123677
H          -0.28395973850166    0.72616747552239   -1.94643453492307
H          -0.11271463162460   -0.95760537671711   -1.65038252894111
H          -0.94425744308624    0.01997386335443   -0.54153305909292
