    26
        -50.46648453  Gyration_radius:  2.45872569154 Dipole_moment: 1.137
 S           1.10069838499742   -0.04279155704112    1.36024600669093
O           1.64066351805785   -0.50516834159945    0.08802412621521
O           0.79691675082831   -1.10117305705584    2.28348014292419
O           2.26243411057413    0.81524337386897    2.04606892065613
O           0.00498830847447    0.89388559033594    1.14377092636240
H           0.86471322931272    2.26574917004549    0.53464582408325
H           2.50102940260258    0.28756460851415    2.80191228910417
O           1.48435792956231    2.85315480645419    0.06553405018618
H           2.30499299242173    2.79874973806524    0.55898043097703
O          -3.45543482053705   -0.17349233236899   -0.21984577918339
H          -4.01836899466069    0.28743780972340    0.40274699485715
O           0.15089068747807   -2.29246780835495   -1.11540916067995
H           0.80665329404297   -1.74926656683075   -0.61949290703286
O           1.27188616458875    1.19293749046383   -2.07212852706252
H           1.38342402351140    2.01966190101580   -1.56718185167281
H           1.63031559118442    0.51673875129114   -1.47238835845572
H           0.63881780986222   -2.74640716052578   -1.80441765901936
O          -1.55668634957532   -1.71104424222771    1.06799343809491
H          -1.18704533141112   -2.33321979500124    0.43197871294384
H          -0.82392502856408   -1.48751093903442    1.66533875776326
H          -2.89241150036616   -0.76522803897902    0.31515554136123
N          -1.00643696797320    0.20565415200899   -1.21118672717752
H          -2.01769191396996    0.36443206708624   -1.30620524856944
H          -0.73441299957660    0.47313284163602   -0.23012372774875
H          -0.80115253833276   -0.80517439956650   -1.31419943860922
H          -0.34921574243146    0.73860192787889   -1.83329675705435
