    26
        -50.46477377  Gyration_radius:  2.49528842312 Dipole_moment: 5.662
 S          -0.79049039128877   -0.77177917247834   -0.82273125354844
O          -0.12608230506309   -1.32207896064102    0.38081123021434
O          -0.31429980273507   -1.60054439374242   -2.02858391123885
O          -2.23092928743040   -0.91040675146234   -0.70726642668132
O          -0.38666723815780    0.61381006551215   -1.02997909664927
O           2.34053607485637   -0.53031699054127    0.62227153026118
H           1.40684872989457   -0.85105824903036    0.57050054685303
H           2.83746531138591   -1.21494906850919    1.07285612729601
O           1.21472270546412    1.36223089312828   -3.03007676270941
H           0.68437071550494    1.32415215285486   -3.82750883697769
H           0.59271057621071    1.23822325802557   -2.28422402684889
O          -1.51127344137867    1.60296390255181    2.68068464580726
H          -2.00850815255635    2.36692780664752    2.38322293746381
H          -0.63559015225173    1.66142776111143    2.20858088767322
O           0.61519057603350    1.70374534389441    1.16576692503239
H           1.42403280590033    1.18433306739939    1.24787437275844
H           0.23000100391191    1.41381334852758    0.31215317978962
O           2.15904700897337   -0.96933365930614   -2.09561366452843
H           2.39739038616432   -0.74974615883694   -1.17513581582751
H           0.68933608203281   -1.44173776070893   -2.09578994476834
H           2.04877414092837   -0.10588544291413   -2.54757809575919
N          -2.16311929724338   -0.80641442808967    1.84364526353782
H          -1.20872802415159   -1.17762669488275    1.59318523534098
H          -2.68406630420320   -1.41664522945193    2.46382581438272
H          -2.02845181017820    0.17042262143269    2.24239035669411
H          -2.55221990062056   -0.77352726050192    0.85671878245337
