    26
        -50.46242439  Gyration_radius:  2.66004422653 Dipole_moment: 3.778
 S          -0.51408787577006   -1.97385931751722    1.31313139669891
O          -0.39385999029534   -0.86028023804362    2.24602100846813
O          -1.76403711956535   -2.00883681887973    0.59640909414785
O           0.64812606166629   -2.03479243506420    0.42208760016690
O          -0.46366131129812   -3.29126179055587    2.19607534776368
H           0.27741743024673   -3.15795393969650    2.77965532460817
H           0.02535597605534   -1.90773224336768   -1.15967566627178
O          -0.64647212334120   -1.67318604030944   -1.83488054183477
H          -1.46092617062507   -1.98068135664120   -1.41431976541216
O          -2.11943911255739    0.62435364586260    0.94774758111188
H          -1.47296523285791    0.30093864799093    1.60952279208501
O           1.96345124572430    1.54640451411840   -0.55973856104096
H           2.62119406172050    1.18159197838218   -1.15499376391444
O           0.28824564762427    3.39991388949497   -2.03408168513156
H          -2.58238369577732   -0.19333017107592    0.71635374071212
H           1.00754714281866    3.06984294492399   -1.47985756966163
H           0.34918127408405    4.35560787294509   -2.02846251425794
O           2.06692416737766   -0.08910990575714    1.46537832098701
H           1.36700220578120    0.06416451451107    2.11409757889214
H           1.73883826422184   -0.88770963489452    0.99857860693650
H           2.06116550514867    1.02531195689022    0.28662861815180
N          -0.60878353922931    0.90393077798819   -1.21937424637627
H           0.37506139235451    1.10113390231726   -0.93077326311708
H          -1.23576506936263    0.92030100834340   -0.36404413073575
H          -0.87162344360216    1.63590490386300   -1.87919528614658
H          -0.65550567049451   -0.07066665583577   -1.63229001685108
