    26
        -50.44740097  Gyration_radius:  2.7298709209 Dipole_moment: 8.558
 S          -1.20548457706781    1.44287494033460    2.35231697822475
O          -0.25307457433158    2.42368609561182    1.87009247129734
O          -1.63928521994034    1.57928225043253    3.70307519174272
O          -2.54174468597656    1.69016692586383    1.44048049011631
O          -0.79506735214072    0.08630807326701    1.95037077394957
H           1.87699881338307    1.07949677511964    0.45145158168375
H          -3.15126712021890    1.98927463840921    2.10711189416027
O          -0.37025574208161   -1.26495779582030   -2.45932343512915
H          -0.48858079439222   -1.35412876327748   -3.40524373240904
O           1.40353457206802    1.78393704561623   -0.00792866875952
H           0.88632699081024    2.22224556430876    0.71416779984534
O           1.43108926055272   -1.03518374134355    0.84190530985981
H           0.73934523273327   -0.64638315683780    1.40672855317497
O           0.23150216490799   -3.16063682782942   -0.44752091478263
H           1.07446659106595   -1.91096044344590    0.61174235880865
H          -0.14574585785755   -2.62561210443006   -1.16211217670277
H           0.80030054325614   -3.81454673119315   -0.85651219298280
O           2.01236627902649   -0.46274078475670   -1.74342040876370
H           0.57605295018339   -0.99151980691517   -2.30811908470920
H           2.16877658090474    0.48578130720920   -1.72905535911552
H           1.93493849019704   -0.72604407028531   -0.79925300620690
N          -0.92707145214160    0.63572470948005   -0.54415613887004
H          -0.96762204876482    0.24173378077006    0.45640899669320
H          -0.95818721908221   -0.10310190251450   -1.26621380737082
H          -1.69761532530996    1.29442293403690   -0.62204570063876
H           0.00530350024749    1.14088107821133   -0.55494779315725
