    26
        -50.44109287  Gyration_radius:  2.58389526573 Dipole_moment: 5.868
 S          -0.60011060215631   -2.22170397193281    0.98254123567806
O           0.55650352227632   -1.72271709055338    1.66469461271481
O          -1.55486424074864   -2.95726259263261    1.72759038188939
O          -1.30276628455657   -0.99564662321454    0.28055620787404
O          -0.16899977866606   -3.03306478508333   -0.25952212159296
H           0.52553327277855   -2.51651153527590   -0.76209610847545
H          -1.52056707105301   -0.34257129025635    1.01918754694397
O           1.45401197182081   -1.66528705005607   -1.76053957915769
H           1.52373449792327   -2.18479525194522   -2.56394425379097
O           0.79618656108703    2.21677990005842   -0.58817732273093
H           1.41816262961733    2.91132956950702   -0.80609352380707
O          -1.88130480249095    0.74479509202728    2.04836403006377
H          -2.77516448351220    0.65871978222487    2.38525122759653
O          -0.35810369093166    0.21219983208133   -2.02745770139935
H          -0.88589995145183   -0.18126072056870   -1.31544649266658
H           0.04633477582422    1.01086199881340   -1.63990420792776
H           0.82205051853123   -0.92007966961859   -1.96165824391591
O          -1.72640350493070    2.67556176437450    0.24356730298429
H          -2.20806685818474    2.42679671935652   -0.54823120707382
H          -1.85049328911405    1.56179420914154    1.49020587763827
H          -0.77705374886832    2.60540770187256    0.01175431796985
N           2.15708145658747    0.29097452403850    0.51925836346333
H           1.32020520683760    1.50081002243602   -0.08387400478967
H           2.52362493440176   -0.27908235381486   -0.23595351624143
H           2.93002086216176    0.52828333415897    1.12894062559191
H           1.53634810683772   -0.32433150507389    1.05098656318391
