    26
        -50.44109288  Gyration_radius:  2.58390795686 Dipole_moment: 5.867
 S          -1.07631693019884   -2.23853913802147    0.30479682001625
O          -0.25925743728750   -1.96958653818463    1.45028348087737
O          -2.29183704115070   -2.94114076538891    0.49601323246676
O          -1.36478414731502   -0.85990880219834   -0.40654917966384
O          -0.23634943909714   -2.93573681718377   -0.78846374162174
H           0.63098628950334   -2.44767385563597   -0.89485649695211
H          -1.81802755624882   -0.28170882948032    0.28606463761991
O           1.93035752231604   -1.59661221920998   -1.30813637132568
H           2.28258315227934   -2.01738548999249   -2.09496475268214
O           1.09826940011574    2.16134326107344    0.12788677358034
H           1.79680595987697    2.79803658071692    0.28086696040567
O          -2.49129741654202    0.70539643752059    1.25779311997234
H          -3.44883436392742    0.68567555299810    1.20696604604824
O           0.49282484685954    0.50243598929759   -1.94661475328711
H           0.75726994985064    1.19301051739904   -1.31037003989770
H           1.47760074963918   -0.76215165575235   -1.61443473916459
H          -0.29787095733131    0.08989055787607   -1.56589040736038
O          -1.51373853328129    2.81226259702342   -0.01298502929174
H          -0.55682589858650    2.65831869213138    0.13035014371784
H          -1.65445536558968    2.72240815127471   -0.95795271063391
H          -2.19131800831725    1.57560423897221    0.89350785870167
N           1.78453902230028   -0.03537644499945    1.34883476760944
H           1.33305428116514    1.33105112027663    0.67287614639955
H           2.26342008867343    0.03088917629939    2.23863188084938
H           0.96707702574710   -0.63306323892113    1.49429918802813
H           2.38612479652993   -0.54743905785168    0.71204715563449
