    26
        -50.44023238  Gyration_radius:  2.54348822773 Dipole_moment: 6.131
 S          -1.19786664392466   -1.83045976286910   -1.24595532243746
O          -1.55247002213710   -0.81068836092121   -0.29703172224847
O          -2.24609458414474   -2.39433501089742   -2.01524436684964
O          -0.08373269629650   -1.22837294370510   -2.17072541213617
O          -0.41448332098097   -2.95675459734367   -0.53360724287980
H           0.42295503507030   -2.53323406507125   -0.18077000277274
H          -0.21602520947826   -0.24596635472351   -2.16923020181451
O           1.76728236986951   -1.81594851235897    0.23890756481317
H           2.45790884230936   -2.21403285228034   -0.29488937992530
O          -0.47548457103267    1.35290013302454   -2.14529706191183
H          -1.15793919993859    1.48108709480704   -2.80652407550402
O           0.55492317423057    1.73369045500003    1.85566174570477
H           0.95878064872954    2.06634893675548    2.65761127917847
O           1.79821745645952    0.74787200014984   -0.37629756553663
H           1.76745122626493   -0.84919455194896   -0.00055664789698
H           1.22168756286396    0.97559941883364   -1.11292580363519
H           1.42151211094624    1.18255138421429    0.41223531125033
O          -1.20258299276092    2.70015417160151    0.02094034880865
H          -0.83899086475872    1.73736882936062   -1.30610532121614
H          -0.68577156281034    2.31935706694208    0.75606427214327
H          -0.92690993507604    3.61553393460327   -0.05823557429680
N          -0.29746918939862   -0.70428816127231    2.22391046565734
H          -0.86862099085246   -1.01173629672962    3.00032192001957
H           0.45730083755791   -1.36969661348901    2.10303158928444
H          -0.87098614555195   -0.75142108381071    1.37828095303221
H           0.20740866483937    0.80366573212753    2.06643025117040
