    26
        -50.45123051  Gyration_radius:  2.47049007433 Dipole_moment: 4.657
 S          -1.44217576228505   -1.20279213560490   -1.49018250923868
O          -1.54774027552780   -0.68617133860481   -0.14364237117177
O          -2.66189775683090   -1.48993019559449   -2.14873550819791
O          -0.57592821515933   -0.20399674363787   -2.31499125038413
O          -0.53682598178805   -2.44732027886488   -1.47885014651128
H           0.36214861227839   -2.11512066120835   -1.17647431690716
H          -0.62436932442586    0.72644133967039   -1.95033957752707
O           1.75245320653623   -1.50573492774736   -0.79202370581873
H           2.32570334156980   -1.62342193971381   -1.55216317258916
O          -0.61922290843652    2.20111893867427   -1.36829198305441
H          -1.19981489685171    2.77772966874162   -1.86720025684533
O           0.82661151778647    1.12535225185617    2.24006958792071
H           1.29723224561599    1.29935866294710    3.05539100878064
O           1.76498641622002    1.07598001406174   -0.33088138804202
H           1.73806160336518   -0.52205146929267   -0.61718304266258
H           1.11405602767588    1.57335949228302   -0.84080187317486
H           1.51348447025929    1.18929442348387    0.60507054735313
O          -1.54793747216548    1.75615726725704    0.99214295909139
H          -1.76538592065805    0.84017284964584    0.74569215471292
H          -0.76281944162159    1.68355307162591    1.56269313990917
H          -1.00888713748597    2.12780579628628   -0.43900259535541
N           0.31784217356135   -1.44131575087788    1.89568331762042
H           0.00823005740085   -2.09786411013313    2.60064971075342
H           1.07078853373413   -1.87324962653986    1.37243957150360
H          -0.45044628837909   -1.30314387988396    1.23897838528058
H           0.65185316561133    0.13578928116940    2.20195332455295
