    26
        -50.44974525  Gyration_radius:  2.55362415495 Dipole_moment: 5.644
 S          -2.29525424664327   -1.36742633833196   -0.00052726405969
O          -1.60966893922963   -0.41413127105001    0.84589198749860
O          -3.51105836443422   -1.90511690937145    0.47737505186554
O          -2.53572717081553   -0.70637853550783   -1.38300569253212
O          -1.31184191211551   -2.52713619852612   -0.30872986851920
H          -0.36113431534212   -2.21584380377800   -0.32133096033859
H          -1.81886863982003   -0.05074271917702   -1.61107479343763
O           1.19084050488325   -1.86917423580782   -0.20755818542815
H           1.67750777099410   -2.68841163084803   -0.10314958037611
O          -0.81106341835247    1.14286736938809   -1.98489847784738
H          -1.25138311365345    1.71171031254267   -2.61865444023948
O           1.83195788276431    1.92246823155276    0.77445033677464
H           2.37999382487067    2.70123531768845    0.67138028458315
O           1.84756282465015    0.50153801723874   -1.46661847802700
H           1.73869607519345   -0.40845992471237   -1.14709915019815
H           0.99026485062393    0.73317629714814   -1.85538577035708
H           1.92763668119173    1.40220004155355   -0.06509333786675
O          -0.86297727855440    2.13388369266664    0.38087113615187
H          -1.23476415294132    1.30960602835004    0.74303919208121
H           0.07607684058257    2.14428479304706    0.65482381248046
H          -0.83564493348311    1.62673277376865   -1.09420518740446
N           0.98977069241274   -0.61399751769048    2.04213776356598
H           1.20772711475630   -0.96894553138317    2.96327742034261
H           1.18460017269435   -1.40209693842083    0.70828033499986
H          -0.01824493498463   -0.49404640534027    1.96805555505358
H           1.41499618475356    0.30220509500169    1.93774830123038
