    26
        -50.47284614  Gyration_radius:  2.45095574156 Dipole_moment: 3.010
 S           0.90170341346604   -0.95389884459601   -0.22258123155788
O           1.84171011228106   -1.52045556128504   -1.31252141028380
O           0.72456263772984   -1.95717336507922    0.79462348064072
O           1.50251551247120    0.26966865325416    0.30849241389915
O          -0.38355525709009   -0.62444419379447   -0.88089643687796
O          -1.01762016222723    2.02488467419271   -0.67871083597599
H          -0.24712285254622    2.47613917462435   -1.04500009933050
H          -0.85831152611493    1.07904221795407   -0.85184204204076
O          -0.39597876263751    1.36693831086668    1.84537537634131
H           0.43405825585154    0.97116867347433    1.51039821308987
H          -0.69928434239824    1.91776565545760    1.09205940891533
O           1.68936285697329    2.18135260920993   -1.44151189407468
H           2.54674874995442    2.60587096080829   -1.39263494649205
H           1.67920514787466    1.49201075555734   -0.72830953347803
O          -1.11759422792436   -2.84867358217106    2.43486287470197
H          -0.72484903367129   -2.84096899571039    3.30986078433748
H          -0.37006836413021   -2.72605774213223    1.80828014842837
O           1.01440737762160    0.15307384022712   -3.10096908627386
H           0.13563432196889   -0.02635451353284   -2.74203582534762
H           1.29067857722076    1.00873919724603   -2.71612983250483
H           1.66658321129647   -0.94849326200005   -2.10736001028337
N          -1.95987949927181   -0.62603666136136    1.23314068173646
H          -2.94430804617563   -0.41389114729950    1.10840757538495
H          -1.80744499587472   -1.49582964315759    1.80326950475946
H          -1.47806471493214   -0.76440974882223    0.30668638796929
H          -1.42308841969436    0.20003253808036    1.66504630432524
