    26
        -50.46304611  Gyration_radius:  2.42269003771 Dipole_moment: 4.014
 S           1.01463091969169    0.98436347077854   -1.29700050905460
O          -0.17437324936977    1.32738128776159   -0.47579251391710
O           2.13695535150139    1.82014464543952   -0.97592503677180
O           1.30386739540425   -0.43302702867908   -1.15085699592750
O           0.60128198327474    1.25092984775658   -2.78548320811287
H          -0.20490435715090    0.74271004430981   -2.94154718198975
H           2.94383758492169   -0.62674666025102    0.22479518697121
O          -0.96566366909529   -1.57209586522598    1.81716873461607
H          -0.99132926627722   -2.39887872359473    2.29994936470253
O          -1.81659344155477    0.03652403350648   -2.09006759719141
H          -1.34097705148603    0.54090701636366   -1.39939195866600
O           3.10889453490220    0.12413973507936    0.80872491022947
H           3.01402229644636    0.89234259287054    0.20585453050835
O          -0.68668576541784   -2.09639641492756   -0.70081269903465
H          -0.89159517365464   -1.82043591700233    0.84478460841380
H          -1.34826059989075   -1.64305126102005   -1.24443136023616
H           0.14383371212624   -1.61106605783455   -0.89766208651215
O          -2.58973919628728    0.69359280708686    0.91628317293115
H          -2.73821685312766    0.29574511843435   -2.01318430649247
H          -2.24847586457929   -0.11595212421731    1.31308169057847
H          -1.84146957672782    1.12165465865898    0.48664860994094
N           0.71723139223446    0.49952726557153    1.84480334590077
H           0.65128377491991    1.11991306256746    2.64557556970237
H           0.14919529872421   -0.37264256912354    1.99034001104618
H           0.32217360719755    0.96057630284887    0.97702807890900
H           1.73107622329152    0.27984074282413    1.59711764946276
