    26
        -50.44974528  Gyration_radius:  2.55342064251 Dipole_moment: 5.641
 S          -2.25787251997667   -1.41017971860512   -0.21555253321794
O          -1.66263960693115   -0.46150622283187    0.70154217617995
O          -3.49697447985105   -1.98042440285278    0.15194668302201
O          -2.39919398773088   -0.72576943968207   -1.60036476686821
O          -1.22906086847994   -2.54446510680505   -0.46471626200248
H          -0.28690045480431   -2.21596514614613   -0.39122447683098
H          -1.68092057851765   -0.05068991054130   -1.75583907889254
O           1.24284014486926   -1.84340056083806   -0.14211212556477
H           1.73590360504127   -2.65518821277034   -0.01268277700694
O          -0.67186248012993    1.17008110309512   -2.02226781212249
H          -1.07081577412076    1.74363117505403   -2.67875922059277
O           1.72380590487320    1.93979554815384    0.95628736507473
H           2.26403902690405    2.72949506589582    0.91250867245318
O           1.94761674960276    0.56406160575164   -1.30181045354381
H           1.83215960596731   -0.35399348765456   -1.00887317084996
H           1.11981411215536    0.78763992319961   -1.75403198013835
H           1.89670703212098    1.43807292746316    0.11781049752943
O          -0.93450809463073    2.11005767093578    0.35025023454628
H          -1.31715802236897    1.27127389043533    0.66460785090343
H          -0.02090490194705    2.13218716614677    0.69920502525405
H          -0.77832587148492    1.63470723796627   -1.12730325306076
N           0.83258760084277   -0.63612343965069    2.10530811650292
H           0.98104189274492   -1.00494644752188    3.03477466108181
H           1.15216670930666   -1.39441345730850    0.77832974300946
H          -0.16809026370384   -0.53356744533357    1.95012207634208
H           1.24654553024788    0.28962969445456    2.05284480878653
