    26
        -50.43947712  Gyration_radius:  2.63367695136 Dipole_moment: 7.872
 S           0.14102106856488   -2.43522398691609   -1.30430101737091
O           0.89150899977948   -1.56984706490865   -0.43590148681533
O           0.64300296550777   -3.73635667632331   -1.54997612248864
O          -1.31758040578268   -2.52022582549709   -0.75891040405069
O          -0.05686135469884   -1.70455631079815   -2.66661499087058
H          -0.18433030543124   -0.75235616324537   -2.44601106461885
H          -1.42297371010431   -1.99431578619994    0.08639660075513
O          -1.82979443170080   -1.13101114149269    1.36729964709087
H          -2.76849387500206   -1.28438571489681    1.49167588201937
O          -0.39117722670220    0.86476281010941   -2.15864848562856
H          -0.52599429703532    1.26813456165945   -3.01863852337514
O           0.81906191709055    2.03113440437111    1.47555136722715
H           1.05101306821264    2.57902023787358    2.22570021497251
O           1.65968608784613    2.14247104903795   -1.08821232261556
H           1.72505995564868    3.08404396617169   -1.25733500565113
H           1.46146416874771    2.04661975830656   -0.13333190010330
H           0.45433880185171    1.23815564334928   -1.79738618561046
O          -1.57799219338907    1.27127780024824    0.34714090813257
H          -1.74439105626033   -0.20005120076732    1.01878290651441
H          -0.79464470984254    1.64947468665672    0.78494394045915
H          -1.30521050342279    1.09779263863603   -0.56636774477545
N           1.04004911835242   -0.46969969189473    2.15307242907768
H           1.12634394940387   -0.87602885280443    1.21947766745925
H           1.79260130391001   -0.84281709318448    2.71776061380968
H           0.95060109121384    1.06327476945049    1.76965899126646
H           0.16369156324263   -0.81928683694241    2.52417409519031
