    26
        -50.43947768  Gyration_radius:  2.63545375683 Dipole_moment: 7.871
 S          -0.30721143800346   -2.73066409195177    0.34590291114548
O           0.62743181304161   -1.65935021990236    0.55771761582394
O          -0.00546659301881   -4.00152951211915    0.89276184125601
O          -1.70720967825063   -2.25617457114474    0.84243776974067
O          -0.53285918044294   -2.88188275615591   -1.18903385538391
H          -0.50340079417051   -1.96885840384447   -1.55897021296630
H          -1.66667065065631   -1.32967405541615    1.21950247664609
O           1.21651892825873    2.34492337565487    0.03742154158460
H           1.59425559820519    3.17310521207391    0.33434843935008
O          -1.84020671486517    0.16543090154662    1.75432554338050
H          -2.77671301254073    0.26477481580689    1.93661092437797
O          -0.45570719297618   -0.47142945033610   -2.26524338910956
H          -0.60912457386863   -0.61991006399247   -3.20062279210690
O          -1.35216210575080    1.47676582088336   -0.46316733051407
H          -1.18525002846078    0.77254002800356   -1.10757841130308
H          -1.65900210284545    0.70117768417181    0.93241463719593
H          -0.49015506234854    1.90553456867381   -0.31767469375639
O           1.83308521396472    0.84221399676665   -2.11880883516125
H           1.70892804379859    1.33994634648718   -1.28368169445269
H           0.46088370519964   -0.10045115027138   -2.18150928590405
H           2.00367634560978    1.49556438521745   -2.79958177882537
N           1.14990289813549    0.68175554031510    2.03549966754060
H           1.88930696547229    0.58284468936792    2.71952557017041
H           1.09952148982256   -0.19257796720504    1.50915624394244
H           0.26864973237711    0.75435594083327    2.53156004273159
H           1.23897840431261    1.71156892653794    0.83668707459757
