    26
        -50.47284618  Gyration_radius:  2.45082196236 Dipole_moment: 3.010
 S          -0.93826976050487    0.93800821620507    0.11484692154423
O          -1.55581398579222    2.14904753306207   -0.62308086687630
O          -0.70256125107717   -0.11766217967896   -0.89700201338803
O           0.34153154571827    1.35545113671623    0.68755872698664
O          -1.86574546768100    0.49603061834294    1.12336090001583
O           2.11749113731012    2.00076886406983   -1.09607629106901
H           2.57216619550086    2.80677521300755   -0.84846980982438
H           1.48527281588879    1.80010646299840   -0.35847987714524
O          -2.68821921275112   -1.72089647884213    2.25798833173590
H          -2.60158000748540   -1.58675590939528    3.20374806517179
H          -2.58934947231548   -0.83001287927383    1.85423293309061
O           1.93185850550882   -0.81030789659995   -1.09756167829148
H           0.98130211053545   -0.59914106687502   -1.14101944133695
H           2.37902164586250    0.02663723467629   -1.27374738895234
O           1.49131790128870   -0.90498067944611    1.54582280431906
H           1.97207539943357   -0.99324414667282    0.69504396174208
H           1.09815385576739   -0.01070029656958    1.48651679219818
O          -0.05342102103486    1.83270592491324   -2.70307052395267
H          -0.23337224688811    0.89071392543766   -2.58655311533579
H          -1.05308302067161    2.19503184681089   -1.48027045887979
H           0.83785564831646    1.98277107695901   -2.32932103542037
N          -0.59176026099118   -2.21862197374398    0.69274335092749
H          -0.78533236990503   -1.49734219889100   -0.05018951535606
H           0.28151367822860   -1.83048052097855    1.18648211501959
H          -1.41012539605264   -2.22231193502188    1.35229970547617
H          -0.42092695617894   -3.13158988116568    0.28419741760066
