    26
        -50.44023245  Gyration_radius:  2.54262393552 Dipole_moment: 6.118
 S          -1.78978337955931   -0.71627338145521    1.61421667250008
O          -0.70569832868630    0.22749536245026    1.61128789078669
O          -2.81964058844364   -0.51896863285409    2.56765714924833
O          -2.37123754578410   -0.75090121697268    0.15829751439220
O          -1.23197337094870   -2.15209955354482    1.74358959850884
H          -0.66887398742933   -2.30571732408075    0.92838691528531
H          -2.17626731434461    0.13363669393761   -0.24459637140874
O           0.10209879502818   -2.50544216780848   -0.43659588428751
H          -0.39433312831668   -3.16371723554138   -0.92709297132370
O          -1.84256372609772    1.59559280484570   -0.85705879673056
H          -2.55638127842108    2.14644010553490   -0.53078860850093
O           2.25740185214999    0.93515021353291   -0.88556238885919
H           3.16450157559544    0.89983745338906   -1.19039087125645
O           0.08461146318462   -0.34602658835728   -1.94992119313356
H           0.08649478021224   -1.68405503972720   -0.99961929180390
H          -0.66437818449136    0.23591353520701   -1.78530833877983
H           0.88067477213697    0.14379939605280   -1.66838108179690
O           0.42922191593738    2.89389980974643   -0.41987074046179
H          -1.00579713140744    2.03087129526198   -0.54993936287680
H           1.13321564547154    2.21915397168215   -0.45473694681443
H           0.60051699938763    3.50175627868467   -1.14190419623380
N           1.93968143772153   -0.63892568401161    1.17071880636314
H           2.20070293196565    0.34076678128975   -0.06495109086367
H           1.79241692977534   -1.59539085858983    0.86974167621818
H           2.52926184508330   -0.65349931141764    1.99278859303914
H           1.02612703028064   -0.27329668725568    1.45003332878941
