    26
        -50.45212786  Gyration_radius:  2.45272791374 Dipole_moment: 5.975
 S          -0.90067435608018   -1.09876526647078   -1.80895579297353
O          -1.29634610934873    0.22121185319329   -1.36172177890289
O          -0.77387547165108   -1.25499190880554   -3.21229061296482
O           0.42936199151276   -1.46543187566606   -1.09106439847539
O          -1.84670225572912   -2.14272475767016   -1.20581818983770
H          -1.69721430289076   -2.06103360417023   -0.21109942522550
H           1.15450888732809   -0.80688022306392   -1.34906482664439
O          -1.44175757928277   -1.77097194228104    1.29933745462477
H          -2.10104391763439   -2.23817219541760    1.81680032831340
O           2.15947101978138    0.30644206989646   -1.70050313310285
H           2.25645253661296    0.32411910611091   -2.65489725169055
O           0.38173101386473    1.94311108633860    1.66533739611557
H           0.76710367881753    2.46240725054635    2.37142001548699
O          -2.03857108206006    0.74050957207191    1.16874985680818
H          -1.96248022935145    0.70726326645314    0.19780824590713
H          -1.68107607646292   -0.79457773928543    1.35587762392605
H          -1.28623782943185    1.28507686657231    1.45996079131457
O           0.51327432691767    2.20159499490749   -1.07633116667052
H           1.62912978131256    1.12617278671221   -1.45858378285152
H          -0.26072125401435    1.65305228108044   -1.29672061058744
H           0.48595009982128    2.29729506923827   -0.10777099845138
N           1.56537307078306   -0.42587503499524    1.46467400547030
H           2.20234596721292   -0.35094893442253    0.67945918004499
H           0.85857131292395    1.06187323312057    1.64800582073236
H           0.82056806244139   -1.05401743127478    1.17836148518997
H           2.06285873461637   -0.86573852272169    2.22902977443424
