    26
        -50.47284622  Gyration_radius:  2.45082527639 Dipole_moment: 3.007
 S          -0.37749465238455    1.10608374007448   -0.63904592459178
O          -0.47647518858417    2.15603002292201    0.34103567199828
O          -1.02522732547072    1.59945491828632   -1.95406152661044
O           1.01161357236741    0.74420013278931   -0.92110467941717
O          -1.12181630648222   -0.10049943915478   -0.20986524631335
O          -0.82815409618154    2.46174395964977    2.92196143811374
H          -0.11155240220708    3.02196165432762    3.22621766718946
H          -0.81793409443604    2.52840818458401    1.94115859679149
O           1.87744728318782   -0.48455749303649    1.29478648415984
H           1.76397919662905    0.12550034567478    0.53797549806558
H           1.63865938257123   -1.35696041317353    0.91452017984944
O           1.25206897256980   -1.26241606116972   -2.55461877484436
H           1.92629922146149   -1.08772046329138   -3.21235412907444
H           1.24107868046258   -0.47487152942686   -1.95173641590817
O           0.46730597667864   -2.31743200433023   -0.06326218785943
H           0.86424444739046   -2.37663038376982   -0.94101292735107
H          -0.19161930196260   -1.60290740159483   -0.13527767748558
O          -1.39900503910254   -0.80010402777801   -2.84044127687382
H          -1.22148180995523    0.76442602248556   -2.45789972956002
H          -0.48079661483461   -1.12608577024578   -2.92534400552824
H          -1.66867898173998   -1.00267589035715   -1.93521221003680
N          -0.47819288405005   -0.11500293395611    2.34728645659086
H          -0.83755036541131   -0.85859430815308    2.93682559175326
H           0.56148323726871   -0.25737164499843    2.11140222260872
H          -0.94003478858904   -0.12060863650436    1.40049469551995
H          -0.62816613919721    0.83662940014667    2.76757219880124
