    26
        -50.44809201  Gyration_radius:  2.54168270399 Dipole_moment: 6.783
 S          -1.28340219710095   -0.92009511191972   -1.88087097922259
O           0.14049834745852   -1.14366809566572   -1.77386624268092
O          -2.04964808685572   -1.94383797265159   -2.48267413365555
O          -1.79101735407618   -0.59460189160698   -0.43764992448331
O          -1.54532603774732    0.41289243256922   -2.61124186393814
H          -1.00993959554923    1.17022162567464   -2.22822265362598
H          -1.41640290792408   -1.40381179325779    0.08453376338289
O          -0.57818438837924   -2.54977655099944    0.51989323113684
H           0.00052689012221   -2.57223259034098   -0.25140638255329
O          -0.31839896950738    2.43581176126427   -1.55633018907215
H          -0.76839484238728    3.21932325496259   -1.87758284740122
O           1.41310956991091    1.04547631150932    1.57094358960224
H           2.00547008910055    1.73516971372675    1.87390205778625
O           1.85798144135618    0.74936781121204   -0.99537448062938
H           1.36104989123287   -0.03249784045492   -1.30782873994710
H           1.40209087717850    1.50466577410706   -1.38703112472785
H           1.65013263542367    0.87899054167476    0.61696180408214
O          -1.09097241652288    1.78751336162252    0.82511371421972
H          -1.53807585474371    0.96541226216817    0.57407123158880
H          -0.25444304773818    1.51851177202502    1.25648680096029
H          -0.62275398327548    2.29653009235638   -0.60668562538980
N           0.95516802333901   -1.68966804348978    2.50570330882700
H           1.14919257725740   -0.71688321530604    2.27674384162899
H           0.49937864751394   -1.71535641486996    3.40850179670790
H          -0.00678373940999   -2.26204638709167    1.29775077445224
H           1.83914444132512   -2.17541080721256    2.58615929294476
