    26
        -50.45123053  Gyration_radius:  2.47045699762 Dipole_moment: 4.662
 S          -1.91946786528097   -0.48595393263812    1.35128994362463
O          -0.74336007381037    0.34439422303441    1.48854269110161
O          -3.00967180468448   -0.17361292248711    2.19852974066295
O          -2.34392553077337   -0.46325230598300   -0.14776754491464
O          -1.51385768865955   -1.96028892018310    1.52627070295699
H          -0.87923082921798   -2.14978386907024    0.77041485982823
H          -2.05187023070531    0.37526266165130   -0.60881453409524
O           0.02346291759858   -2.39315633162350   -0.48601988280101
H          -0.43415361536088   -3.03199089322433   -1.03622952038294
O          -1.55253821085405    1.65767351681620   -1.39630735941641
H          -2.25712260922950    2.29744983886887   -1.50896394367687
O           2.35608560573592    0.99541937923098   -0.64976775536063
H           3.28711540639234    1.07130227884610   -0.85932421795432
O           0.38717949374981   -0.30708347977671   -2.03319478019309
H           0.15307446150186   -1.58729239213151   -1.06244313771729
H          -0.35425152948121    0.31021996399046   -2.05010630833403
H           1.13750362558973    0.18789154683756   -1.65314348407172
O           0.23896292729024    2.52012285183795    0.24071919796721
H          -0.05340584820989    1.88111743551811    0.91397134714250
H           1.08055733423381    2.16506464123534   -0.09470962115844
H          -0.85927872496479    2.08897704847651   -0.80141373843328
N           1.89461931837761   -0.75331323877527    1.27231879561832
H           1.73169847875209   -1.66927610220406    0.87016506832862
H           2.27316076094986    0.33562369906629    0.10453359333769
H           0.97992210724000   -0.38131772141756    1.52825276777181
H           2.42879211381903   -0.87419700589736    2.12319713017042
