    26
        -50.43947765  Gyration_radius:  2.63403161659 Dipole_moment: 7.863
 S          -2.58890415392984   -0.97676675275604   -0.01448455756673
O          -1.22345174552618   -1.37709267016609   -0.21860007585882
O          -3.58418478138306   -1.98355853494430    0.02217404159987
O          -2.65160322381689   -0.11770184321876    1.28538890607140
O          -2.96039622092607    0.06104606744978   -1.11667272008010
H          -2.14692595257667    0.59616820129580   -1.26912312115605
H          -1.75191078537686   -0.04269819265345    1.71809795070039
O           2.62610482462113   -0.03335752659187   -0.28548172714944
H           3.55946093465345   -0.17692835972297   -0.12746440016800
O          -0.81972329135773    1.53091626683582   -1.59697887900729
H          -1.09967534827221    2.15343927895218   -2.27116615126109
O          -0.39958067497907    0.29237956061246    2.49892590916542
H          -0.65521242828253    0.87848023986993    3.21395150871178
O           1.28432195564068    0.28982022617500   -2.60637130201035
H           1.77128187267313    0.05313921698220   -1.78956006173753
H          -0.11689079243350    0.96287105604660   -2.00697175910061
H           1.88671829496435    0.81322475487430   -3.13790693811320
O           0.78505594457626    1.77156340553342    0.68736765098977
H           0.14456608739657    1.79182969872033   -0.03950188977953
H           0.08544565253405    0.85849461991549    1.83568180818523
H           1.52641036385033    1.22825577061768    0.36535215763324
N           1.26022916445231   -1.80512641143171    1.03981176871411
H           2.12863903559833   -0.76547678061127    0.22183865879937
H           0.39091263632557   -1.76290475462113    0.50445026201388
H           1.51963721140092   -2.77993141858919    1.12240509884478
H           1.02967542017245   -1.46008511857619    1.96483789155958
