    26
        -50.43947782  Gyration_radius:  2.63603203571 Dipole_moment: 7.881
 S          -0.21560562026566   -0.75273631469040    2.65906961701765
O           0.27706984037746    0.30456139846236    1.81908932393652
O          -0.21589472945811   -0.55081708606358    4.06066013691801
O          -1.64997998286118   -1.12633427663341    2.17471474445142
O           0.59217225334303   -2.04638684999068    2.33598440781794
H           0.76706084300967   -2.02291022837610    1.36641066171607
H          -1.93641272852531   -0.55553238364023    1.40382751195805
O           1.11865160767138   -2.05830287065593   -0.25210021030893
H           1.60430369388616   -2.87332350600672   -0.39470815886706
O          -2.53891034187115    0.16393588711351    0.11085917386199
H          -3.38479010739599   -0.26000006145676   -0.04678376748247
O           0.70743106902063    1.48239670925695   -2.06983589518325
H           0.73596441825028    2.17798984366967   -2.72719750049059
O          -0.88024395559539   -0.74205871376312   -1.70667585092717
H          -0.34537660437638    0.02925816741713   -1.96583872805231
H          -0.28291207022965   -1.31214953679345   -1.19945481193557
H          -1.92853360319281   -0.15725826200046   -0.60997188939378
O           2.67608213100046   -0.13107756647630   -1.17084913810263
H           3.18385891350062   -0.32116617730522   -1.96170717805205
H           2.00940250189270    0.54067325633630   -1.42555264188186
H           1.73990107955874   -1.31456815355164   -0.46622445405211
N          -0.45706550725550    2.38878022701855    0.07138929738660
H          -0.30995405791957    3.31566404514611    0.45047803788551
H           0.27631083272624    1.88521775133982   -1.23772993806452
H          -0.08684431695016    1.71836648121978    0.74785472875622
H          -1.45568554834185    2.21777822042612    0.03429248108655
