    26
        -50.45781206  Gyration_radius:  2.43515425569 Dipole_moment: 3.637
 S           0.59800936579413   -0.51717642192013    0.09458520559335
O           0.00032279058015   -1.11787268256268    1.27668748257086
O           2.10043777590339   -0.33032308167665    0.30462698707443
O           0.46016933198593   -1.38797737714019   -1.08582659535118
O          -0.00239404108538    0.79094647014098   -0.18201746615509
O          -1.33070100190372    1.08043335109434   -2.40349688920952
H          -0.92709238507865    1.20691222979245   -1.50973705796460
H          -0.54187429559681    0.93567807217746   -2.97125705793306
O          -2.49439295422320   -1.27037421427097    0.62881013556030
H          -1.55121800167194   -1.19621248826125    0.94145980717088
H          -2.83356117566232   -2.08952684364613    0.99568980425925
O           1.12837306448335    0.27870794433433   -3.07667343783509
H           1.86051006513822    0.81781689711862   -2.77359904063842
H           1.02051076441297   -0.42522662030273   -2.40751851741179
O          -0.42954502563101    1.49479834113950    2.35548572785272
H          -0.87005327131494    0.68746968576553    2.63374491758417
H          -0.34790949572949    1.40510428352700    1.38631135159193
O          -1.91500262522642   -1.25621288592374   -1.85810418483886
H          -2.33657733476652   -1.23951592308378   -0.93043937092511
H          -1.80797200631583   -0.20816052544703   -2.18895208818716
H          -0.92855789026057   -1.47057650792276   -1.63683654944909
N           2.26109512071997    0.80199418761761    2.56117085635500
H           2.93097332674312    1.55530111810771    2.63805484334051
H           2.22432300174513    0.13902383437287    1.25298747301758
H           2.42334378685156    0.13465736782956    3.30297102164897
H           1.30878309010419    1.18031178913923    2.65187265227973
