    26
        -50.45212709  Gyration_radius:  2.45211033673 Dipole_moment: 5.953
 S           1.18295209073862   -0.93322872754711   -1.72756931672412
O           1.37158232187025    0.41943332083747   -1.24423465501176
O           2.37256635982083   -1.64961776352332   -2.01367917539617
O           0.31968134727657   -1.69578584562011   -0.68269035703264
O           0.22895028821954   -0.91442942538492   -2.92650944366964
H          -0.63991431497662   -0.57316137136439   -2.54158120718865
H           0.81872465925450   -1.75043727821251    0.19788046617531
O           1.60151356432245   -1.67485591705757    1.51984129995659
H           2.46426980719839   -2.06644700289556    1.36822712361023
O          -1.88686935457406    0.04798148725407   -1.84471183574880
H          -2.52390338640877    0.29287083982113   -2.51917726974831
O          -0.67000752918405    1.79235436130242    1.74023693995830
H          -1.08789311898978    2.20395856228963    2.49707045976530
O           1.90704485855727    0.88927520111132    1.35834220966815
H           1.75392465330248   -0.68354317142664    1.59253637062211
H           1.89598616963909    0.86731807248745    0.38468894243113
H           1.07606277243793    1.33046001905758    1.60911928725884
O          -0.66241912286508    2.15591350414880   -0.98478531470003
H           0.19582821727734    1.72969820734808   -1.16247156588037
H          -1.50775665808091    0.91082824659877   -1.49079145870359
H          -0.71583515179978    2.21582393622523   -0.01485147776628
N          -1.56704018469707   -0.68200022446591    1.38107801401628
H          -2.47014525726832   -1.00026127323752    1.71024998462811
H          -0.85892448260222   -1.29420861224952    1.77049848352366
H          -1.54218440099926   -0.81030601030871    0.37397283268800
H          -1.05619414743804    0.87236689488409    1.64931069325638
