    26
        -50.45406750  Gyration_radius:  2.52851202953 Dipole_moment: 5.864
 S           1.59425246101172    0.45115745236586   -1.59495149846504
O           1.48441109985586   -0.61025965558936   -2.55960004405193
O           0.77463595564131    1.62475861789932   -1.92672636677057
O           1.38295210193675    0.05939472273005   -0.21707232906411
O           3.10774141520651    0.95836537926078   -1.67627225332529
H           3.34696104867381    0.71259190483939   -2.56420915704546
H           1.06465316411775    0.76224964266684    1.15508612516550
O           0.20275618147435   -2.85469326180296    1.10989430733121
H          -0.16433012501277   -3.73988396099417    1.10989279437976
O           0.74610854438696    1.29542304453036    1.93503657033806
H           1.52981171952655    1.52172477407253    2.43710090180395
O          -2.28696278525288   -0.11737135180884   -0.02632920870054
H          -3.20752263744938   -0.37921911400657    0.00713940896449
O          -1.12795303472952   -0.80718914412476    2.16785447217281
H          -1.86922614625808   -0.43466156313914    0.83950798502577
H          -0.61369939585957   -1.60128332903205    1.88742196139221
H          -0.46519970465059   -0.11258198100316    2.29283142006826
O          -0.48062350999953   -1.97115000883827   -1.31757154382910
H           0.10292789667142   -2.52469909414329    0.18492103455550
H          -1.08896031526962   -1.26066194911547   -1.07515108240232
H           0.25002145017199   -1.55521356258525   -1.80897298980732
N          -0.87685600270653    2.14605262863296   -0.05977618131541
H          -0.17226837011387    1.97404002938374   -0.87891602223531
H          -1.56138337008312    1.35400080831880   -0.09623446049731
H          -0.33908935360358    2.06226653273079    0.82259979617906
H          -1.33315829769970    3.04684246873894   -0.14750360985172
