    26
        -50.44023271  Gyration_radius:  2.54309819203 Dipole_moment: 6.121
 S          -0.87610227202813   -2.08039381190741   -1.11020665321898
O          -0.63616999879541   -0.71689852213760   -1.49657716344909
O          -0.98494736060971   -3.03931144362299   -2.14813492961475
O           0.25355776813330   -2.47514299674015   -0.09668198044009
O          -2.12543748976960   -2.15438460754706   -0.20303283953835
H          -1.90603260469142   -1.61892730494515    0.61566801358605
H           1.03700224714713   -1.90717133569318   -0.31199904412190
O          -1.43748194441904   -0.85650186693583    1.91843708565208
H          -1.38371266358701   -1.52037292018818    2.60890034721165
O           2.29190261215423   -0.96196064014834   -0.70559062671529
H           2.70480942817292   -1.42655478185310   -1.43575705635818
O           0.38229281609430    2.51922887142862    0.51365632159680
H           0.22661397277925    3.36621943219253    0.93232826822303
O           0.99810301001477    0.13265758524127    1.70727113091982
H           0.85665440523685    1.02598717902628    1.34049735985083
H          -0.51592196280461   -0.49025451988269    1.82679494303365
H           1.55296738845370   -0.33556309199701    1.07510481268251
O           2.05972489726946    1.58493872400841   -1.41022415364242
H           2.87369908186001    2.05129695647510   -1.20984884125166
H           2.08300145918474   -0.05481906233824   -1.04849685816418
H           1.37477191866175    1.96263466280788   -0.82652839712709
N          -1.88736871228686    1.39890882552529   -0.11849936021904
H          -1.49174488093278    0.68218825569693   -0.73171567738229
H          -0.52636237609273    2.14908339413495    0.25390898075319
H          -2.64203630575715    1.84956303553392   -0.61945162795849
H          -2.28178244338905    0.91555000386374    0.68017795569071
