    26
        -50.46846769  Gyration_radius:  2.39946761983 Dipole_moment: 5.641
 S          -0.34800390410799   -0.47400862074319   -1.72262046641444
O          -1.50847908513306   -0.44654776586724   -0.79926303235964
O          -0.35972177410891   -1.63993455676879   -2.56394743522979
O          -0.46404917280310    0.80161925177424   -2.61045440633490
O           0.88157231281762   -0.36103712415299   -0.94628510459191
H           1.83742016350628   -2.57406781915312   -0.86868075624008
H          -0.30446756419301    1.56709982848336   -2.00746552886419
O           1.01905956199713   -3.07723757592664   -0.81791138721482
H           0.48192458790947   -2.72010457415391   -1.56305705772547
O          -0.20976578588332    2.81235906524628   -0.88337129016110
H          -0.68538595950035    3.56098188062435   -1.24751460700189
O           0.43251361915303    0.26683739364096    2.44293000918360
H           0.88959892230982    0.33000748951331    3.28239139711079
O           1.82029665940794    1.49415928165808    0.62008554791416
H           1.62173697307453    0.78592914837631   -0.03419301173315
H           1.39045306696936    2.27394788775420    0.24982145454405
H           1.00469237696389    0.75863261820972    1.78044773561262
O          -1.62739885287011    1.55846753916628    0.91533821373481
H          -0.78228668711357    2.44082552921596   -0.15466343694734
H          -1.74813397056376    0.81718709470307    0.28229294335317
H          -1.05544092429272    1.21069641661703    1.61326018990385
N          -0.45678177906814   -1.89844068790654    1.04200226845641
H           0.23023836081950   -2.43639978174788    0.43505822862574
H          -1.02705228871827   -1.33733786380406    0.32383735016619
H          -1.04604264050571   -2.52135931742273    1.58455238532406
H           0.01350376393311   -1.19227473734121    1.64740978688624
