    26
        -50.44023272  Gyration_radius:  2.54310861203 Dipole_moment: 6.121
 S          -0.20987096632240    1.87514076681803   -1.66377027161363
O           0.60448916512472    0.69976869971758   -1.51785475489845
O          -0.29894268806938    2.44622358283821   -2.95783369520387
O          -1.63222051229374    1.51914811869590   -1.10757156626239
O           0.24159846425095    2.95265966499973   -0.65161233725642
H           0.08616291631395    2.56122335906187    0.25817087308553
H          -1.74171733178177    0.54010228041296   -1.21816568956658
O          -1.87625710018838   -1.06053615073511   -1.42513480634979
H          -2.14863609569997   -1.14816442750926   -2.34034426407099
O          -0.29757735658070    1.91629249794697    1.64921690735317
H          -1.01285580852770    2.45048692680383    2.00043680635112
O           1.05420109402260   -1.92900765798349    1.38716393692634
H           1.50533555973015   -2.33735601913090    2.12651843043515
O           0.10609156542004   -2.77507305512507   -1.01563278979888
H          -1.04653886258631   -1.59751996972913   -1.33949491293674
H           0.57193684978216   -2.45987050417089   -0.21805548666416
H          -0.25227145307645   -3.63758265700001   -0.79696504564514
O          -1.29100918617142   -0.51521246835329    1.41274585106014
H          -1.70275423874814   -0.68427535684172    0.55915098672237
H          -0.50648517947737   -1.09394610375852    1.45929388562601
H          -0.67359179985938    0.99989775067532    1.54596207010422
N           2.19223571873579    0.33920631624610    0.78219044368663
H           1.85134488236587    1.08124215862280    1.38240229138747
H           1.55991583147562   -1.07626444124422    1.16980345054329
H           1.73244561934149    0.45735455292299   -0.12383148374833
H           3.18497091281957    0.47606214582084    0.64321115073292
