    26
        -50.45781196  Gyration_radius:  2.43528493687 Dipole_moment: 3.644
 S          -0.39452699219443    0.53353565864046    0.43992176155693
O           0.21647535316022   -0.76774796371606    0.15445623983384
O          -1.68139367734372    0.64556237154180   -0.26876055521969
O          -0.72909847833742    0.60007906377394    1.92978052570633
O           0.50967058839452    1.61559658983104    0.08337914666877
O          -0.90609580892592   -2.27645145596275   -1.64773550666570
H          -0.29265723582128   -1.88604810906065   -0.97774559184120
H          -1.73499408411927   -2.39007944705114   -1.13256432044590
O           2.73249352539195   -0.07310320828462    0.70425612665829
H           2.75990348014725    0.72328744382491    0.16730756105876
H           1.88479942872201   -0.49666851733236    0.46731115183337
O          -2.77491817559125   -1.75868994765252    0.19194344736248
H          -2.51828170873937   -0.81970531180625    0.10594359354087
H          -2.57672014710893   -2.00225637876635    1.09742303647581
O           0.89942136273865    1.21638108878372   -2.43741450324420
H           0.95063208717845    2.07786269344730   -2.85678570890593
H           0.81378981170668    1.38872995955603   -1.45972359350948
O          -1.30776593308748   -0.05131722281187   -2.64132432152626
H          -1.13575000133699   -1.10571352029850   -2.36381416959866
H          -1.61494947813085    0.32159505599898   -1.72756086219676
H          -0.39395552588668    0.38715666987540   -2.74764479261792
N           1.52828890958207    0.83403132352852    3.04686813221098
H           1.75221491218069    1.80174727214313    3.23494535301612
H           1.67282055239291    0.28911326300503    3.88613473361835
H           0.19486008963934    0.70808683482454    2.44972606385103
H           2.14573713539336    0.48501578400856    2.30167706245408
