    26
        -50.44877580  Gyration_radius:  2.46875765699 Dipole_moment: 6.597
 S          -1.52774219085794   -1.60120506636548   -0.09214063272406
O          -1.41367220740032   -0.51029961258095    0.84764777111291
O          -2.82498070031052   -2.09687955171477   -0.35469203652834
O          -0.81943554356751   -1.14867881773610   -1.41583395567256
O          -0.59904958038246   -2.74363080704399    0.35368234765569
H           0.30907106550682   -2.38015769033703    0.58880192645286
H          -1.38758305513285   -0.42899167145985   -1.85970619844773
O           1.79872697149398   -1.89867348137839    0.80388129847441
H           2.36257565201620   -2.64411526660666    0.58747092028315
O          -2.06400211701183    0.82581881510127   -2.39505223862725
H          -1.58617936651971    1.26460841823030   -3.10249128946895
O           1.22305258426118    2.07467205395445    0.11430118823312
H           1.82223913925009    2.80087904202065    0.28927547773701
O          -1.53117463370648    2.01078842544229   -0.14706096503077
H          -1.63993295718699    1.19245339821190    0.36882024039123
H          -0.57577424544677    2.19372347761292   -0.12580582217010
H          -1.97929740274048    1.40537148086036   -1.58440493725918
O           1.79506620922310   -0.23630119949545   -1.20183374831042
H           0.92855686871855   -0.53833601374009   -1.51178203611240
H           1.90526739494396   -1.23990299959516    0.05751564366942
H           1.65184551571907    0.65780146733433   -0.83373305189605
N           0.84662010081918    0.57460118983392    2.24235318265698
H           1.12452944354241    1.55864205816050    0.97646017623316
H           0.71919352736652    0.92451826005960    3.18328075691880
H          -0.04158125758471    0.17962021152960    1.93380564145319
H           1.50366080497058   -0.19632615027644    2.27724034093918
