    26
        -50.46788059  Gyration_radius:  2.39851335634 Dipole_moment: 5.648
 S          -1.28043265071174    0.51096272041870   -1.16581093908240
O           0.00549938919243    1.23248932185005   -1.31437573881895
O          -1.84924178444618    0.15412916582777   -2.43735449472093
O          -1.08200640358914   -0.64759316975606   -0.30167804324464
O          -2.24988886157478    1.48611298528666   -0.42931426084169
H          -1.89511241209825    1.59810634587212    0.48501841614435
H          -1.03901998131440   -2.59255740793614   -1.78339029067449
O          -1.30689458989121    1.65534533976800    2.05913812710169
H          -2.03817084327866    1.86534502237806    2.64232399649515
O          -0.57029370710042   -2.16461372866168   -2.50586285636720
H          -1.09049733148351   -1.34295398821194   -2.66727714736629
O           2.05694294013003   -0.66593348656842    1.23121540333326
H           2.92924452741163   -0.66467757620910    1.62733957219080
O          -0.60316138733538   -0.84761918167127    2.25510720026464
H          -0.88995617124101   -0.93166297921190    1.31877871055785
H           0.35633298779626   -0.95227556338741    2.20731380250640
H          -1.06174056206568    0.70139878440746    2.24272862557000
O           1.24720858067655    1.80067034857552    0.94640500389664
H           0.82739729936707    1.73124141965054    0.06066447028331
H           0.51573220717002    2.01179547313076    1.54053030780978
H           1.77748251604864    0.29382788908295    1.17096142541878
N           1.48371530529475   -0.86773942717454   -1.44115794938816
H           2.32027769090075   -0.86080098513912   -2.01555608566120
H           1.70706180783727   -1.04651717929797   -0.44086014049705
H           0.97755025494172    0.08102829574424   -1.46176720768600
H           0.75197118935756   -1.53750842877399   -1.82311990722431
