    26
        -50.44023233  Gyration_radius:  2.54334316124 Dipole_moment: 6.127
 S          -2.29224847689234   -0.31601794766636    0.99074953640107
O          -1.08879401905339    0.38184200051317    1.35243410529837
O          -3.49512678414890    0.09709916395282    1.61596342366203
O          -2.41522476321921   -0.23857752214260   -0.57067856340530
O          -2.09682170033801   -1.83556748125821    1.19681961881979
H          -1.36297286493659   -2.10888873273734    0.57079993488698
H          -1.93384541997131    0.58106874237208   -0.85204334899394
O          -0.28310873857602   -2.47515025983472   -0.52365956916093
H          -0.73606211240292   -3.01895287638301   -1.17132371937721
O          -1.14498261612747    1.93399257277360   -1.26603485984649
H          -1.79672691465515    2.62522471731038   -1.13621785099627
O           2.55803521103367    0.43945684716351   -0.14426279927012
H           3.49111313833465    0.22533526257473   -0.16389560043535
O           0.58187770810101   -0.37249088959160   -1.85955412794603
H           0.03385307271171   -1.67329439170616   -1.02209058786414
H          -0.04856588335091    0.35470436159910   -1.88549059068105
H           1.34298611943448   -0.05792105298388   -1.33612200512898
O           1.10863668067558    2.73801967407374   -0.12198106456295
H          -0.36671394001516    2.18998847973313   -0.70656854836326
H           1.64118091660191    1.93063054587212    0.00954490610150
H           1.60174861722419    3.29136332273818   -0.73096827589772
N           1.33880639640691   -1.01955382663835    1.64205125740872
H           1.64606010731842   -1.15187965947049    2.59685981286591
H           0.47672887607996   -0.46956150485572    1.66638605919753
H           2.14319220961659   -0.12478431194479    0.59038874802236
H           1.09697519014958   -1.92608523346583    1.25889412926746
