    26
        -50.45212784  Gyration_radius:  2.4527521689 Dipole_moment: 5.976
 S           1.53051639824755   -1.67179836647295   -0.39279953474490
O           1.12393570250783   -0.67693501041668   -1.36432422016187
O           2.91771266208728   -1.96259662825632   -0.36105073520993
O           1.03339092389647   -1.20326552063825    1.00435766594415
O           0.69035766918759   -2.93924971687330   -0.58350033780766
H          -0.25276006108902   -2.63776839108115   -0.38811538483381
H           1.46553518982559   -0.31985318878263    1.24699242325044
O          -1.66692577309106   -2.02465249313795   -0.15379758502847
H          -2.32746647082427   -2.67143817062474   -0.41085057988163
O          -1.41630670994574    2.10680895111543   -0.50235826439645
H          -2.00102298311909    2.85286363032426   -0.36738150994948
O           2.07374816611975    1.07634350914098    1.47962286464522
H           3.02881339633880    0.99008852632004    1.44638117625666
O          -1.45004244978516   -0.20935415966654   -1.98091512964515
H          -1.56063394808959    0.67735393598929   -1.59512607851611
H          -0.48647657376834   -0.35235007396927   -2.00747842864998
H          -1.68926191843163   -1.30567013893036   -0.85837618640588
O           1.31716248146981    1.96049088325916   -0.83063761746752
H           1.80603969283996    1.54543173325492    0.63111170312384
H           1.35415780380449    1.07080434887401   -1.22512861565369
H           0.36948364457511    2.18107882684457   -0.79581168691900
N          -1.19269644450578    0.65431452307153    1.70972813291120
H          -1.38284058787468    1.59380060503950    0.35788487625098
H          -1.09216397186369   -0.29883201854796    1.37406808538925
H          -0.30372091202504    0.91407761714410    2.12224869633416
H          -1.88853493648953    0.65030677701715    2.44525628116821
