    26
        -50.44788589  Gyration_radius:  2.44268071948 Dipole_moment: 2.485
 S          -1.23571506886403   -1.27579990852207    0.42333605015663
O          -0.43480476305155   -1.70548345930948   -0.68717697965636
O          -1.44442312061976   -2.22775419417083    1.46212709224304
O          -0.60030733087582    0.02022933323447    1.00824034088824
O          -2.59726390466690   -0.75045983174901   -0.07304880902505
H          -2.40828632596266   -0.03261462702474   -0.75500794502350
H           0.41213723366105   -0.02270024695235    0.80733378697992
O           1.84067972299931   -0.31708102959454    0.56462960127487
H           2.39218967131759    0.32024580365018    1.02449223227521
O          -1.95194967581055    1.06433349974399   -1.78711108614555
H          -2.38896062485671    0.90958859397046   -2.62651135746268
O           1.52816554770016    2.35809521334186   -0.30829660734628
H           1.82862229879974    3.11075754017765   -0.81945308608455
O           0.52041027224597    0.44167848907090   -2.02030762857106
H           0.43227745708310   -0.44068546553273   -1.61814338298707
H          -0.96588106292206    0.86375500220834   -1.94039044677093
H           1.04773520616795    0.97763892626972   -1.39485796579629
O          -1.07396547658195    2.68440718165881    0.34951132783942
H          -1.09176881176524    1.89381175789291    0.90418374933723
H           0.61912985386918    2.57759220679481   -0.00703646901995
H          -1.55056966507813    2.43394920501943   -0.45285118214193
N           1.43315250761898   -2.67284890885218    1.67810814678108
H           1.76448369256230   -3.05202892075512    2.55746205667962
H           1.62783061858516   -3.35590298315512    0.95565290561934
H           0.41823831653431   -2.59709031971012    1.73303231147882
H           1.87884345188064   -1.20563285770736    1.02208335444911
