    26
        -50.45002626  Gyration_radius:  2.51315797218 Dipole_moment: 6.052
 S          -2.07541297160382   -1.43580100627652   -0.48357974035369
O          -1.76385086443632   -0.52856024459835    0.74061924434042
O          -3.45462828831185   -1.74754412608016   -0.55171069734692
O          -1.48091670717886   -0.83024547056270   -1.65218600989447
O          -1.27099153766117   -2.71001946942756   -0.12819984039376
H          -0.32053869810831   -2.41715234632092   -0.14228818807440
H          -0.81324131178412    0.52627962156392   -2.21486905884039
O           1.17062671751796   -1.83488575366103    0.02704054028470
H           1.80364721705359   -2.54569944595150    0.14419471005433
O          -0.40679916494088    1.40400532432834   -2.41013885243440
H          -0.73905340600370    1.66848699606915   -3.26889044504038
O           1.39883009358111    1.98091041464703    1.05307446310905
H           1.85622499448569    2.82192133927527    1.01957957961373
O           1.91292949553361    0.59996418636439   -1.12608449996125
H           1.67080871656133   -0.31006444503185   -0.88985361849743
H           1.21338161754538    0.91326521963746   -1.72174057527619
H           1.69231502770036    1.47113285474765    0.24976760820422
O          -1.16383352978189    1.86504559182962    0.17773947192119
H          -1.58606077560806    0.45206604803633    0.48719427111863
H          -0.29440749249608    1.97345548921081    0.61942177480281
H          -0.96960317306462    1.87918372182599   -0.77728893709039
N           0.74134811866395   -0.61548335518993    2.28829930641044
H           1.03800466863395   -0.93474646845500    3.20099221643550
H           1.06338659721714   -1.37827858332354    0.93417969447363
H          -0.27324498554148   -0.61163509752358    2.25898007862423
H           1.05107964203595    0.34439897486688    2.16574748380452
