    26
        -50.45730957  Gyration_radius:  2.44908354873 Dipole_moment: 7.988
 S           2.06589051609646   -0.38778498471144   -1.19988026179245
O           1.68077403313919   -0.97764006537213    0.11950805198590
O           3.45461505993121   -0.50683049128066   -1.46918152500807
O           1.25040589522735   -1.26626421454628   -2.24288554520782
O           1.49611235381310    0.94764688019447   -1.31622776712570
H           1.00717241456991    1.92864106285392   -0.21045521152806
H           0.39016925956021   -0.81372320877782   -2.26391963495507
O           0.61491694526875    2.52714554935476    0.48755308466010
H           0.95419248933192    3.40291227440954    0.30036348290340
O          -1.51602310321424   -0.42942815704567    2.08872308680146
H          -1.87270828548318   -0.57028518365664    2.96587106813088
O          -1.28050319010606   -0.31466290676027   -2.01149170980384
H          -1.61104755969878    0.03720581181943   -2.83854275121084
O           0.89561700030228    0.45666162853100    2.23313901855978
H           1.34885432952476   -0.09532107826142    1.56243878552493
H           0.85672007908763    1.34050568254017    1.82860810148231
H          -0.57964782855140   -0.06487292668109    2.21936547486305
O          -1.77828654933500    1.35959145637402   -0.07200226405227
H          -1.44100016016391    0.39665159927111   -1.32479993028558
H          -1.88761583337410    0.81515869734196    0.72135691036323
H          -0.98742612871140    1.90663432579683    0.09849744516273
N          -0.63944767802386   -1.96845282190737    0.06383275363050
H          -1.06265331763560   -1.62006380337592   -0.80652482820813
H           0.41221753224325   -1.58751377962764    0.07951301920650
H          -1.11741397520483   -1.53496636502068    0.88370133434742
H          -0.65388428859038   -2.98094499146454    0.10343985155363
