    26
        -50.46172235  Gyration_radius:  2.51959523962 Dipole_moment: 6.744
 S          -1.90468798063746   -1.00073870653000   -0.65263185901407
O          -0.84022376549032   -0.67883032816936   -1.60311184198804
O          -2.32636062963464   -2.36466401109786   -0.71874229212076
O          -1.48651914860722   -0.59741570653368    0.70730306033621
O          -3.12700930393662   -0.06774842149756   -0.99885168914050
H          -2.84157179332448    0.82921399351974   -0.82136449563717
H           0.07765541244599   -2.19335448607382   -1.62968060053244
O           0.30333475604407   -2.99762781270736   -1.12311445580203
H          -0.57393714043634   -3.35289154524801   -0.91818394003838
O          -1.28657920937035    2.03503671714514    0.52140181548032
H          -1.42788485272563    1.08579341266666    0.70816444749472
O           2.32037163347321    0.71322516101811    0.13986407188914
H           3.14715635922067    0.67460122277178   -0.34236966013121
O           0.49631490174823    1.58001196640733   -1.42470592505401
H          -0.14733417440041    1.98832503045766   -0.80479007646286
H           1.63104287175048    1.07750449294803   -0.51922997375311
H           0.05188133823504    0.74665170843726   -1.68762308562239
O           1.03988978022965    2.38620725669203    2.00720648153044
H          -0.64783793591746    2.31432308313502    1.19955361585787
H           1.58845306005881    1.81095211661425    1.45104300205645
H           1.42904938083687    3.26114742511127    1.96654297736231
N           0.93367829397263   -1.45943515815929    0.93036234404893
H          -0.06256802460663   -1.06768471234598    0.97557537391697
H           0.87372539919658   -2.19238065469849    0.16662457974554
H           1.57006659573543   -0.67516964390770    0.64819973962549
H           1.20989417613769   -1.85505237996312    1.82255834595562
