    26
        -50.46172226  Gyration_radius:  2.51954591226 Dipole_moment: 6.745
 S          -0.82986802004271   -2.07228806511124   -0.26973333255472
O          -0.06970183604897   -1.40461547640062   -1.32636231776025
O          -0.33728273208862   -3.37744077639034    0.04066078720696
O          -0.89969624250231   -1.19117856691506    0.91588757461359
O          -2.31673692488210   -2.19189618669170   -0.77910645560623
H          -2.65015205663219   -1.29699164171849   -0.85335894563726
H           1.56770521567828   -1.99815966742795   -1.00949384105272
O           2.17100018113472   -2.34924530162560   -0.32591830155535
H           1.66756183820729   -3.10500922769010    0.01046513977375
O          -2.30045813498208    0.87936768768950    0.04731551226594
H          -1.86416904619130    0.11882312254764    0.47988543140436
O           1.39114048615145    1.98684463995421   -0.17386780139278
H           2.12484914427692    2.34676884072241   -0.67361651628738
O          -0.39019156683015    1.16153949501698   -1.80856524316822
H          -0.21059887645118    0.19783334318657   -1.82356663332069
H          -1.21669179709824    1.22473922677780   -1.28115908158160
H           0.70386911590949    1.68677810912067   -0.86655837347918
O          -0.84388506609084    2.91370290037401    1.26503976963563
H          -1.05702750174433    3.80330953958516    0.97912382483816
H          -2.04167542567821    1.64016270473049    0.59515907781407
H           0.00037410641392    2.68145027368677    0.84730994127542
N           1.50617748801577   -0.31547835908568    1.22396208683745
H           1.57159773239328    0.59907161202763    0.71497698941182
H           1.98817107824489   -1.08728689201128    0.67990197677702
H           1.85805752916739   -0.23519686324725    2.17188395049160
H           0.47763129167234   -0.61560449109810    1.21973478105416
