    26
        -50.43947774  Gyration_radius:  2.63524088594 Dipole_moment: 7.873
 S          -1.65463899059674   -1.62886357842792    1.51043903551092
O          -0.66632177475533   -1.67400399745241    0.46764305165384
O          -2.09707792733466   -2.85296722520984    2.06823576399201
O          -1.12551361975091   -0.69032046316033    2.63772085174030
O          -2.88944081372229   -0.84218304791457    0.97546060400348
H          -2.52737958762671   -0.12848961956088    0.40023726201328
H          -0.21440227529619   -0.33600308546549    2.42172289215798
O           1.17628709939831    0.42307114758201    2.21957227906585
H           1.27350450732395    0.98790052606900    2.98876638083916
O          -2.00437613922184    1.08915241590476   -0.59321327809481
H          -2.79648566931265    1.54527469091160   -0.88463899360322
O           1.76660503257834    0.63718046921922   -1.85835647715791
H           2.58979761208463    0.75938684809623   -2.33182697578424
O          -0.74760639126481    0.36544509808917   -2.80257305053289
H          -1.58877559660927    0.69316530442156   -1.40274492589559
H          -0.77373280479142    0.97982546324204   -3.53827485771109
H           0.18143198354790    0.34719008036163   -2.49089922043594
O           0.52880245066871    1.97662752637533    0.20899118275661
H          -0.39923687492549    1.75237228437843    0.04306581358313
H           0.97059666845983    1.02911720826163    1.45418094890334
H           1.02200076984749    1.62149591591748   -0.55179386976878
N           2.05804750500456   -1.29193887115698   -0.13941269250842
H           2.56354563239381   -2.14881793768454   -0.32566245228193
H           1.07446089112107   -1.53754651426562   -0.01131380354532
H           2.36902522553880   -0.93018974291435    0.75523662780655
H           1.91088309724330   -0.14588089561795   -1.22056207670602
