    26
        -50.45862822  Gyration_radius:  2.473592895 Dipole_moment: 5.840
 S          -1.58476792994672   -0.56362697310449   -1.38707331386412
O          -0.74960819228454   -1.24150801085835   -0.38062920038678
O          -1.90669144034813    0.77882631039402   -0.96798204125674
O          -1.02566626997775   -0.68266516830729   -2.71086437873610
O          -2.94253934589948   -1.38570075014942   -1.41596167617729
H          -2.82550312085065   -1.87702196395020   -2.22176986937725
H          -0.18928380692752    0.79823453430784   -2.85569315193644
O           1.76880313316515   -0.92793533735769   -0.23578833651625
H           0.79616786683040   -1.14652852625735   -0.40074275540232
O           0.12386759483056    1.70162039620104   -2.65339064860759
H          -0.64385959353988    2.13367297688409   -2.26573491289573
O          -0.36674670653861    1.75446515286087    0.98112381983463
H          -1.01182715528043    1.54246734330304    0.27661128574415
O           1.72805981549037    1.50812994890035   -0.57999591296764
H           1.28011619575504    1.65574225163226   -1.45391748580823
H           1.03181020487917    1.73787880027812    0.09215004422451
H           1.83777400157441    0.16256623115962   -0.44734602582256
O          -1.02774702422785   -0.67364030188982    2.16919224248504
H          -0.98605503731628   -0.94535414606627    1.22166719850257
H          -0.49547900835652    1.05186070541890    1.63639771241463
H          -1.94731115639123   -0.75125516539000    2.42696947562545
N           1.85440124910627   -0.93156852057991    2.33011980911336
H           2.27291853272603   -1.71852021398817    2.80787571803258
H           1.87887005547788   -0.98784741832878    0.80667011048050
H           0.85922765954875   -0.91283408256608    2.54484938780163
H           2.27106947849755   -0.07945810250214    2.68326291543480
