    26
        -50.46846770  Gyration_radius:  2.39949329155 Dipole_moment: 5.642
 S          -1.37165955074388   -0.05623812389229   -1.19509610477451
O          -0.44970819648226   -1.21821673354830   -1.19390067667188
O          -2.74792205123214   -0.46455203346230   -1.27548524200506
O          -1.10335467207385    0.76665583165578   -0.02116629254111
O          -1.01156753770663    0.78748881678753   -2.45501274647140
H          -0.11413779723972    1.16179166008904   -2.28362466726756
H          -2.87513030153615    0.30596020898229    1.54593851306183
O           1.67176626987409   -0.18743660784054    1.84262886568103
H           2.14574068627338   -0.02208407966021    2.65849232837791
O           1.48248771400556    1.59975588459896   -1.99432542163963
H           1.90137724083436    1.72792469996984   -2.84721285829216
O          -2.99000770132530   -0.63036504228564    1.35729969775246
H          -3.08312467459632   -0.65835827079234    0.37656918317403
O           2.12837644105979   -0.70230068973223   -0.94517731680457
H           2.18842424525135   -0.62941052011222    0.01724837909359
H           1.21844143753879   -1.02426078699710   -1.12710137626094
H           1.84100188129209    0.74232840922672   -1.62946387600507
O           0.99863356001052    2.08261504065106    0.77106058942925
H           1.42354086205655    2.26487927543892   -0.07521570518012
H           0.11818673579713    1.72313632660113    0.51708361763385
H           1.44218712129707    0.71618017736391    1.46981043646299
N          -0.55494744741389   -1.67802445404018    1.33213182255700
H          -1.51185281252130   -1.25632370201483    1.52215076657280
H           0.22154742727391   -1.08969246625556    1.70277890086138
H          -0.49205231933102   -2.63325755577439    1.66857948561080
H          -0.47624657036113   -1.62819524495996    0.26100968764495
