    26
        -50.45002660  Gyration_radius:  2.51410544899 Dipole_moment: 6.061
 S          -1.89527535082643   -1.65434875667820    0.53943520246284
O          -1.76683328328331   -0.14678792604649    0.89945344769062
O          -3.22941426514197   -2.10391599958395    0.68747783483427
O          -1.27107390120531   -1.86220497190436   -0.74621484893420
O          -1.00498962636809   -2.30272841469697    1.62781082675703
H          -0.08762858325995   -1.97209585836086    1.43189573242069
H          -0.67418578782222   -1.10583539785264   -2.04037597658439
O           1.32667891352304   -1.23904397846866    1.19739656781478
H           2.00801539312940   -1.63121005081547    1.74662631561565
O          -0.32983167829342   -0.51218927024067   -2.74937841188984
H          -0.60912897059286   -0.89733954864362   -3.58092004997556
O           1.12273859659710    2.35093440621764   -0.45195221124823
H           1.50050586866681    3.02789498998771   -1.01462364543066
O           1.93986760775823   -0.02133806912822   -1.24110047751940
H           1.52742065692557    1.48862063308782   -0.74210139444964
H           1.76414996535985   -0.59485718726947   -0.47770337970504
H           1.26504571338074   -0.24689936732578   -1.90161394905722
O          -1.33729533118786    1.39289695859652   -1.06313971590921
H          -1.65594456399970    0.46107340343222    0.07763709318134
H          -0.52023370145853    1.86197549906349   -0.78860366309333
H          -1.06730952719250    0.82020275225029   -1.80406829170055
N           0.60394322198107    1.07279330501728    2.15498947579082
H           0.85388467504765    1.44373483481491    3.06207440198848
H           1.10414839648750   -0.32842401565638    1.60269369297590
H          -0.40103816846054    0.93350147173689    2.12605753408082
H           0.83378373023494    1.76559054848407    1.44824785988543
