    26
        -50.45004761  Gyration_radius:  2.53821332858 Dipole_moment: 6.002
 S          -0.81073838211409    2.17657187298482   -1.21360418953099
O          -1.36396596746833    1.00707793217071   -0.56625110609724
O          -1.71771383211837    3.12028770090615   -1.74575744108996
O           0.14421904522900    2.87883029594504   -0.21317713879850
O           0.13644154207783    1.69353408657763   -2.34439275880870
H           0.58344649508080    0.83625329204444   -2.09264752131181
H           0.45668486186317    2.27029456183174    0.51533847646868
O           1.22824066191737   -0.60313058431808   -1.83831790779208
H           1.59203594475412   -0.93512007628411   -2.66055352800024
O          -0.29620422926126   -2.21046814108765    1.62142205881719
H          -0.29437611018266   -2.69084511992670    2.45007972107364
O           1.07129147665548    1.43272166774574    1.72475301738055
H           1.81159926516073    1.92085409285050    2.08867096366806
O           1.91685124567836   -0.83507876738999    0.81969236522761
H           1.20274737362256   -1.44439575221511    1.09718504836068
H           1.83679384736163   -0.76423425719792   -0.14510375092413
H           1.44287287787979    0.55962319514989    1.38401291752253
O          -1.39820904929854    0.15956938062758    1.99788437163128
H          -0.78520404580469   -1.36191352761471    1.79383599064176
H          -0.64563796753658    0.69884396377287    2.27368317985679
H          -1.58170145688879    0.45600634898560    1.08846042103520
N          -0.98713580672238   -1.76483176281757   -1.21888811372322
H           0.36635485897519   -1.13479985557765   -1.64789566956253
H          -1.46611320049458   -0.88923656503999   -1.01704428929971
H          -1.57808182857770   -2.32682364561943   -1.81653740956307
H          -0.86449760978412   -2.24959034650167   -0.33484771717616
