    26
        -50.44803311  Gyration_radius:  2.47702160027 Dipole_moment: 8.069
 S          -1.20146817792772   -0.79863771603865   -1.71118950259754
O          -1.45661989372296    0.47306984667665   -1.07164324715230
O          -1.55529795986212   -0.91576502630738   -3.07444017478885
O           0.30672867725855   -1.14360972221689   -1.48444395622855
O          -1.87456348504656   -1.91351703812365   -0.88907327670364
H          -1.65700832875277   -1.80439558905508    0.08480374619045
H           0.86923184175540   -0.47954132111694   -2.00447108227931
O          -1.24249635577777   -1.75898823663993    1.61446939454676
H          -1.34766504222857   -2.64014712070547    1.97746672450532
O           1.72928458873197    0.65603282705548   -2.57785831968072
H           2.66350513055980    0.64506708213894   -2.35935762653019
O           0.88789144520459    1.72171311516959    1.60396394867491
H           1.00632744534103    2.48325296230532    2.17332370135951
O           0.50748272240170    2.35835146557668   -1.04844641942366
H           1.32671934826546    1.42823852542560   -2.08486306225125
H          -0.34615561350118    1.90311103869507   -1.14149591269378
H           0.77214293408357    2.20108930873488   -0.12196334649042
O          -1.65055952294100    1.00469019981116    1.56584771678451
H          -1.72397811147904    0.09516680467313    1.88054373381624
H          -0.07749193358124    1.48748473817817    1.65862853845233
H          -1.73895820774850    0.93752143195763    0.59748793453598
N           1.28101295086274   -1.18864311588695    1.30941427769329
H           1.37699119690608   -0.19245351428205    1.49062816136740
H           1.32677599649920   -1.32231809614627    0.30426715341324
H           2.06055177764606   -1.66886305551860    1.73890223261600
H          -0.24238342289546   -1.56790980435938    1.56949865287607
