    26
        -50.45499937  Gyration_radius:  2.50014448827 Dipole_moment: 4.590
 S          -0.37583020900328    0.52530924960975    0.89508479389165
O          -1.60290797536265    1.04915164080818    0.30597622796593
O          -0.20792382746153    1.18417334545421    2.27747572113617
O          -0.45627655920743   -0.92489121744710    1.07244249113918
O           0.78018094417957    0.87421220422651    0.06736790341177
O          -2.47575343564258   -1.43015904574246   -0.41447605861246
H          -1.67963600946451   -1.41796875614932    0.18788830151930
H          -2.95847977243613   -0.64237390104120   -0.13666205449568
O          -1.72508257976429    1.75382560366695   -2.15233398673486
H          -2.55067181757867    2.23221597059555   -2.24804240264371
H          -1.59666155283654    1.61439671229461   -1.17095512273214
O           0.98791670981975   -0.60176240972263   -2.01310640644815
H           1.46732400592720   -0.04808690066937   -2.63396346116548
H           0.93556571804966   -0.07180559523062   -1.16340622719891
O          -1.46109126888674   -0.72485479123498   -2.58963344269870
H          -0.43640983993743   -0.78808988243938   -2.41432758266861
H          -1.92384029960681   -1.11843706043809   -1.71372739845884
H          -1.64070646065117    0.28838735851363   -2.54964553590688
O           1.16089391113573   -0.75137892454216    3.21530685041133
H           0.34036098010528    0.51786334619751    2.79979611598961
H           0.63565973541675   -1.27992135101154    2.59560775337819
H           2.01129629111260   -0.56996103227725    2.74373479104247
N           3.09209529963135   -0.02964621683543    1.48957035737006
H           3.75416278206274    0.70407424048114    1.70770926869735
H           2.35423863153160    0.37836779215998    0.91357980770990
H           3.57157661886495   -0.72264037922861    0.92873929610072
