    26
        -50.46811972  Gyration_radius:  2.53497333232 Dipole_moment: 5.663
 S          -0.45931604400407   -0.63740692548892    0.44297625959193
O          -0.09599019931363    0.76486430419730    0.14647510151857
O           0.39399475243655   -1.17114545697445    1.48561825832109
O          -1.90142967287141   -0.64516850995314    0.95445787133939
O          -0.37326216915342   -1.43829061474645   -0.77874436446973
O          -1.74967809216770   -0.43024810127571   -2.78339667363142
H          -2.09272777034471   -1.18207815297138   -3.26959894494845
H          -1.15903059042263   -0.80248921426192   -2.09141233248023
O           2.16758154814343   -1.98447302631196   -0.60280556830893
H           1.20854830085962   -1.86956328404537   -0.81132694880702
H           2.16378544832895   -2.47025897397416    0.22658873401536
O          -1.90393330426952    2.72734611587381    0.00433893640464
H          -2.08615120081676    2.94683761736329    0.91964899009401
H          -1.16338472792913    2.08785637852286    0.02048220796311
O           2.29451623967299    0.15010103336410    2.71010958159936
H           1.48827228708695   -0.31760338849968    2.38238065015312
H           2.68829893875317   -0.42829432813096    3.36491921008056
O          -3.26349087507268    0.54732712748072   -0.80485769134034
H          -2.50865834650490   -0.19805986973186    0.24840077823325
H          -2.96252381961467    1.46493671843157   -0.63834293051253
H          -2.82644044132132    0.27428421868260   -1.64199499976809
N           2.46643956009199    0.54534909590528    0.08724726516730
H           2.69226765047852    0.53778752991089    1.10590533249458
H           3.03417575362253    1.19894339170318   -0.44059059602762
H           2.52851403906298   -0.45045429752269   -0.27612146809157
H           1.41962273526879    0.77990064245105    0.03964334141318
