    26
        -50.45640444  Gyration_radius:  2.43310082417 Dipole_moment: 7.920
 S          -1.25565480523692   -0.94448879468792    1.79221230517917
O          -0.15795122919504    0.06823214841835    1.79614706870696
O          -2.17952457677539   -0.75215486165778    2.85683128728511
O          -1.99154275708379   -0.71257120170428    0.40497385942346
O          -0.67874036904304   -2.27018595618510    1.64265618320171
H          -0.33653514207299   -2.34271328473217    0.12643277967009
H          -2.07963885120366    0.23995281242166    0.22484534767911
O           0.07314517264596   -2.33770527586040   -0.79009700085136
H          -0.23236774389740   -3.13801167329522   -1.21860982310213
O          -1.95211737125287    1.67218861827463   -0.81651731129424
H          -2.76640672455925    1.79912830578238   -1.30487947882856
O           2.00647790548108    1.37584031450669   -0.94701675913418
H           2.62383912941382    2.04059125579933   -1.25283643032860
O          -0.24169975469846    0.12441071143608   -2.10301665939234
H          -1.35635884743718    1.12805937202792   -1.39706022624714
H           0.61479815217384    0.51300790647482   -1.87041711980070
H          -0.27544024056087   -0.74590823273923   -1.66956809839660
O           0.25678374746001    2.43440216222076    0.64337891053632
H           1.35487158002957    1.85275027217827   -0.34291321577809
H          -0.57084339865988    2.50410580825204    0.14555573726331
H           0.10462391902290    1.68175710576225    1.25013885528552
N           1.84909813167894   -0.85206660554880    0.56211707388962
H           2.58455148280947   -1.21623576741737    1.15612114331198
H           1.44539552881259   -1.59012867045388   -0.04064052748925
H           0.99699022763692   -0.48014626599686    1.17253135043663
H           2.16424681450931   -0.05211018330563   -0.02036926119824
