    26
        -50.45730954  Gyration_radius:  2.44916251563 Dipole_moment: 7.989
 S          -1.88715837616227   -0.70601927338120    1.34133664546129
O          -0.77246111516086    0.19117771495577    1.77717793313256
O          -3.01016099539617   -0.64551216109918    2.20762593990350
O          -2.15045831113322   -0.49489361540683   -0.07564811228081
O          -1.23999937090153   -2.15490601295637    1.41988924323704
H          -0.80343242611893   -2.23241551541710    0.55456972608071
H          -1.81254253087611    0.72076187733654   -0.98796209081803
O           0.34477108507044   -2.24862532644504   -0.78027006402334
H           0.09733504915819   -2.95970101815868   -1.37216213024494
O          -1.52447314353779    1.46060330932499   -1.59540071877657
H          -2.29340203961739    1.67848314893380   -2.12309917587651
O           2.21675401176317    1.36758931188762   -0.24075117184814
H           2.91184425976710    2.02520029460321   -0.21223173775285
O           0.67966498024996   -0.04220129086757   -2.13393431888338
H           0.39312384732736   -1.42303373273239   -1.34536163323655
H          -0.13377057645158    0.49607498242958   -2.08789651549036
H           1.34771221265739    0.46294396069725   -1.64768478846771
O          -0.02810096258378    2.40232511484401    0.47415100374466
H          -0.37474847685281    1.71837441556213    1.08413504709331
H           1.36495691535071    1.84396833994788    0.03204680264576
H          -0.59341349935524    2.32798334426464   -0.31416783367325
N           1.48907114129669   -0.77563945798448    1.21324471154121
H           1.29919698899941   -1.55045619877781    0.56395046548038
H           1.97255681488966   -0.00336365895302    0.70496120564150
H           0.49348197571680   -0.36933713204353    1.52196112283992
H           2.01365252190984   -1.08938140055660    2.02152044457046
