    26
        -50.46788073  Gyration_radius:  2.39869807644 Dipole_moment: 5.651
 S          -0.15319363050993   -0.22511503848644    1.78527605880388
O          -1.33701573129117   -0.65889954343388    1.00633760119741
O           0.17394105359582   -1.15459017074255    2.83245168727332
O           0.96346426147639   -0.00058002875273    0.87375593091567
O          -0.52479802204946    1.14979058883489    2.42131700899180
H          -0.61374409438357    1.78983649628542    1.67511973543584
H           2.44484502018128   -1.92218448425217    1.13663313524213
O           0.00301160375048   -0.11606222242448   -2.48628177554395
H          -0.27207354460123   -0.16949476870213   -3.40240233298985
O           1.75236364150953   -2.57948321660313    1.25261442045508
H           1.18777487556485   -2.19977304390890    1.96586975931827
O          -0.63275914143554    2.85488483749171    0.37399780149633
H          -0.43609398645033    3.73262264746344    0.70545499825264
O           1.38487572863965    1.83863055220495   -0.92741052683079
H           1.09493024770467    1.34091504683442   -1.70331199165113
H           0.16409518597741    2.56806046240026   -0.16132831139067
H           1.41541401507058    1.15959070141430   -0.21736357296706
O          -1.95572239095138    0.86236445571885   -1.06237980156294
H          -0.76467549552634    0.29077096272060   -1.98832037512479
H          -1.87802786572007    0.29003294300449   -0.26745295196932
H          -1.75879579357393    1.74977866928386   -0.73630593858474
N          -0.04707490475339   -2.14715325124361   -0.64685855075031
H           0.19783663043031   -1.48004015547205   -1.40667280660504
H          -0.48283553043749   -2.98716370183221   -1.01335668683493
H           0.78083502464466   -2.37676182239863   -0.02077474637579
H          -0.70657713686574   -1.60997691542410    0.01139225179445
