    26
        -50.46788057  Gyration_radius:  2.39881762773 Dipole_moment: 5.650
 S           0.75342690894613   -1.60989917562633    0.31740573968407
O           0.11732324684367   -1.47814750321270   -1.01455625135683
O           2.01735837102308   -2.29185699352393    0.24697322626419
O           0.86928981419048   -0.28880572132279    0.92529378769742
O          -0.22913882321738   -2.44652782892797    1.19339645393484
H          -1.03390172728502   -1.88961818514548    1.32275622397581
H           3.21625068767948    0.34813560271500    0.71382943839156
O          -2.32197389394449   -0.84721891364255    1.60721597396895
H          -2.73482116288850   -1.10457193955681    2.43321379239058
O          -0.84924266866134    2.17243950657873   -0.86995238750363
H          -1.30698280520161    2.83881673394834   -1.38396439200452
O           3.35764825151876   -0.04233351849659   -0.15358885730393
H           3.03000259491944   -0.96619217642280   -0.04982523790047
O          -0.93466401047095    1.34539876141267    1.86304973350449
H          -1.86683356958172    0.02883615698755    1.77774424827877
H          -0.14803482075949    0.79362370455376    1.65562069461272
H          -1.02096698725327    1.91596641701078    1.08791425508709
O          -2.13155570783839   -0.09405337937544   -1.07297863171569
H          -2.55515680172425   -0.34713775155689   -0.24289145775561
H          -1.39168034977394    1.33495737764920   -0.95368071170214
H          -1.36571801025440   -0.70495450871762   -1.14947193022091
N           1.31638495132302    0.69832026177323   -1.67583140777765
H           0.79839247663725   -0.23559334152452   -1.54775402042986
H           2.18458692266756    0.57497829514491   -1.07476296660655
H           1.55548216729892    0.86602375811589   -2.64770769292646
H           0.67452495579737    1.42941437117292   -1.30744760257918
