    26
        -50.45364647  Gyration_radius:  2.66166192043 Dipole_moment: 7.048
 S           0.97954578131448   -0.39841965416883   -2.51023168492413
O           0.04543223853567   -1.52508679064010   -2.46353281120496
O           2.11463008238440   -0.57965534866959   -3.35039406723705
O           0.11666548463343    0.80097241420405   -3.19606486365859
O           1.23363268399213    0.10738627806924   -1.16570853806402
H           0.12125093537885    1.17900563846412   -0.76024861644688
H           0.48336709916125    0.79865015520782   -4.07401022958246
O          -0.72436451018046    1.68560487327304   -0.62065074062069
H          -0.77969893409885    2.28143169641363   -1.37015873250464
O          -1.05272933843379   -1.36604130800806    1.73826354785290
H          -1.47256848862692   -1.79420618022697    2.48445995224882
O           1.73746427561919    1.09288009612314    2.76095618492569
H           2.17124126479953    0.88222711170039    3.58807590039111
O          -0.86392247541671    1.18098248314894    2.15708943953481
H          -0.99416625839832   -0.38518523014880    1.96501169439569
H           0.05943851388000    1.27480541190295    2.48046222050761
H          -0.85658755259791    1.57565104179409    1.27409222786071
O           1.74464529384552   -1.07575691024113    1.21058317822398
H           1.87479888562974    0.31247856993132    2.17001699711490
H           0.85178568787196   -1.41039521970300    1.37250726047067
H           1.71804609723044   -0.68958798046745    0.31760776644569
N          -1.73297484431416   -0.79627116446936   -0.79868658503805
H          -2.67588580669193   -1.01338784648683   -1.10176774513670
H          -1.53872055585997   -1.19000457492169    0.14883020074734
H          -0.99609558750150   -1.18364322942145   -1.50807486654840
H          -1.56422998239937    0.23556566730033   -0.74842707986390
