    26
        -50.45364648  Gyration_radius:  2.66166883849 Dipole_moment: 7.048
 S          -1.08072027282586    2.11400318499356   -1.33528192826554
O          -0.38669183205826    2.85805218675284   -0.28226102063085
O          -2.24301609937411    2.74354442880650   -1.86433022999012
O          -0.00953791831364    2.07496765049277   -2.56188439388427
O          -1.20767956575433    0.70857208702980   -0.96551097637804
H           0.10070787927388   -0.09666518135378   -1.40117734206566
H          -0.38334992982341    2.73164209588749   -3.14005771166252
O           0.79158892219978   -0.45466056238865    2.27212547542847
H           1.13132997795290   -0.74642787910937    3.11820180563269
O           1.03180863432292   -0.39375173708468   -1.59095391845936
H           1.19079357216832   -0.13529693467532   -2.50074942538714
O          -1.44131348992645   -3.07737148408345    0.53667119550499
H          -1.89435280724551   -3.67330451532551    1.13356909193674
O           1.11593430246609   -2.30404669912313    0.49083750047336
H           0.23474705746081   -2.73902676026055    0.47420977797895
H           1.17155547885974   -1.82896790181546   -0.34981506228894
H           0.93156608534555   -1.21735790672782    1.62745463607971
O          -1.90191714918575   -0.56920391981077    1.31341430092392
H          -1.73964439543154   -2.16599082392371    0.77643995996110
H          -1.08998133522241   -0.38599288289072    1.80596675253673
H          -1.81473774955174   -0.07655839467302    0.47859731205129
N           1.52808181540416    1.33245654114619    0.40460964918763
H           0.71752440280470    2.03014948916986    0.17546080672216
H           2.40448686667536    1.82579929201781    0.53347537735330
H           1.27595216261759    0.77866264299991    1.25330010023117
H           1.56686541712617    0.66677399396986   -0.40231172302618
