    26
        -50.45364647  Gyration_radius:  2.66163948943 Dipole_moment: 7.048
 S          -2.38835053549343   -0.69586817606044   -1.10937815434881
O          -2.58290061085346   -1.29642941391467    0.21184466293034
O          -3.08718330126579   -1.32745889862167   -2.17702126620317
O          -3.05129965741895    0.78558597536495   -0.97056669055571
O          -0.97649852700128   -0.40414378450255   -1.33230918553185
H          -0.60983766357944    1.03216792919328   -0.73851696515741
H          -3.86918448620372    0.65443636648727   -1.43868905089013
O           1.43243222044370   -0.82562439239763    1.80605294661536
H           2.06811918755698   -1.05224264357349    2.48498844650022
O           3.06380421633778    0.11199430643522   -1.56089532234858
H           3.91377189014302   -0.29884636773369   -1.72035649545306
O          -0.52956411152793    1.85404787535335   -0.18237153283859
H          -1.21300888896025    2.44066263147045   -0.51190564979026
O           1.30865573942074   -1.77872662541720   -0.88910854526773
H           2.41714749622648   -0.62647877967955   -1.44427267976586
H           1.31643923002674   -1.69133053697563    0.07406502977547
H           0.46537061501721   -1.38762303782281   -1.17743478853133
O           2.13761671860268    1.35998351277824    0.61267031297852
H           1.30957360654514    1.74344371727763    0.29202417393062
H           1.76664247960695    0.01988387898508    1.36977152890975
H           2.58708859739030    1.02507811370516   -0.19466169670108
N          -1.09768465604679    0.07919849568694    1.75046705787847
H          -1.74130388002721   -0.56666308707831    1.14639955722786
H          -0.17951426953319   -0.39466680672939    1.90208036367613
H          -0.91773850895934    0.92843230980611    1.16557103662418
H          -1.54259288044349    0.31118743790307    2.63155290631672
