    26
        -50.46208147  Gyration_radius:  2.40576910483 Dipole_moment: 7.099
 S           0.48216646367979   -0.40197425564357   -0.72505298122395
O           1.86598615525316   -0.13186413383436   -1.04026412594646
O          -0.41963856024854    0.05255969469471   -1.81125222198384
O           0.19719987929825   -1.76629230547994   -0.34619192327697
O           0.14847769083683    0.55148630041487    0.46640694478150
O          -2.57902341094558   -1.25090893187349   -0.88150716859633
H          -1.86388353496191   -0.78853206078074   -1.35594658877624
H          -2.27662069245864   -2.15966431954524   -0.80394567485709
O           2.09394246410646    2.35352809538984   -0.38142644536313
H           2.17509378461629    1.40832075492117   -0.68157412812113
H           1.96232771305684    2.28737699187229    0.56890034562258
O           2.18491280644670   -1.47969774532657    1.53522464869531
H           2.97844761834073   -1.11694082577088    1.13843228388448
H           1.58809574838934   -1.64723241209003    0.79374786189939
O          -0.59497616288548   -2.39783319902838    2.19248181509548
H          -0.36021466199454   -2.41960226144177    1.24955189011089
H           0.23595351577538   -2.20691070118903    2.63871655983866
O          -1.98756890655297   -0.22831894074504    1.52488876516701
H          -2.43356093569198   -0.57533661762657    0.72018742497647
H          -1.63379761143964   -1.02403650161997    1.98617351776007
H          -0.73063425291767    0.26932594793153    0.94593274135311
N          -0.22340555823031    2.57109984602409   -1.55759505265674
H          -0.96071179342407    2.88862767883623   -0.93471378994119
H          -0.22352107679156    3.10109424999674   -2.42374224614438
H           0.73774514338683    2.61677627588576   -1.06263640265186
H          -0.36279181465003    1.49494938600677   -1.75479605962111
