    26
        -50.45371814  Gyration_radius:  2.52339608037 Dipole_moment: 7.377
 S           0.25972421987787   -1.40074342056889    1.81689755555329
O          -0.29812386742240   -0.31467205641280    2.59989810983411
O           0.15429438300999   -2.70921102978767    2.35506427749483
O          -0.28526201947570   -1.31236058677763    0.42120830130274
O           1.80416990730767   -1.07819719440372    1.61184693467232
H           1.87022726061836   -0.12897504419069    1.41163669075739
H          -1.48227697240856   -0.14722793726577    0.54845366558003
O          -0.34343462784497    0.16716828447063   -3.21946910373552
H          -0.74072311312613    1.02831623781588   -3.35769099552246
O          -2.20027440736587    0.51534370023419    0.42398650404815
H          -2.75623702396237    0.42973601965173    1.20080958944863
O           2.03522603133485    1.46534746149194    0.63180917779112
H           2.70554592882733    2.01221502816724    1.04291514837527
O          -0.25216625312430    2.08572661110819    1.59920930263482
H           1.14698424789507    1.81200186358241    0.96573856335171
H          -0.99451112554275    1.95412423392498    0.98993788521427
H          -0.27765515206331    1.27001599200113    2.15925316915591
O          -2.07586616128978   -1.19026803060811   -1.76436028513343
H          -2.45092141287258   -0.49596708030108   -1.19953547835977
H          -1.04941980250350   -0.40059364909460   -2.81173650899426
H          -1.53501714400612   -1.71335368255125   -1.15841255262983
N           1.37751709366359   -0.36412009739577   -1.27299835435253
H           0.69379562880108   -0.83241711762344   -0.56615230857826
H           1.78615315092548    0.44607685272251   -0.78252399507104
H           2.10182014725074   -1.02482457730037   -1.53377655729162
H           0.80643109336986   -0.07314078086856   -2.11200871560996
