    26
        -50.45911268  Gyration_radius:  2.4354212847 Dipole_moment: 3.785
 S          -1.77628889010836   -0.37823689732247   -1.17550838244497
O          -1.86473511871896    0.10448694585542    0.19509482729347
O          -0.92790384586124    0.46666584886149   -1.99726130467508
O          -1.42392879152991   -1.78113130400761   -1.23363661461953
O          -3.22841917895962   -0.26081796556297   -1.79764797264175
H          -3.66313625429987   -1.03255966702669   -1.45057735115014
H           0.20898741901104   -1.63662570759482   -1.40197359304263
O           1.17880023847861   -1.50207940172560   -1.48711134237538
H           1.33404146631129   -1.39595001404064   -2.42778741347640
O           0.51265281355884    2.26239976802889   -0.99834958222273
H          -0.11306412631837    1.61594279555888   -1.49493169890508
O           1.40644627695054    0.47062651626014    2.19326261811554
H           1.84831965000942    0.34408689992632    3.03288939570384
O           2.31584272791755    0.65059568551219   -0.35621900419961
H           1.97226416823787   -0.18549308856820   -0.74599104854778
H           1.36596470091050    1.66794664533742   -0.79782538870046
H           2.15767401103820    0.58645583007732    0.60605738419158
O          -0.55751614881098    2.13087771221421    1.26021059197738
H           0.06100330462039    2.37240188661384   -0.05016226230527
H          -1.19116928917633    1.43394355557503    0.97779822147685
H           0.13212857678404    1.66047338712083    1.76657720201725
N           0.01316808244892   -1.62673702145470    1.48100415383275
H          -0.37736066313384   -2.30361858414485    2.12443113447449
H           0.49830757562327   -2.14012081553563    0.75427548703560
H          -0.76633826396972   -1.15005672180022    1.02639060508174
H           0.88425954897485   -0.37347629816579    1.99699131809683
