    26
        -50.44238951  Gyration_radius:  2.52131282853 Dipole_moment: 5.662
 S          -1.66752937494130   -1.26807920369816   -1.46278264846573
O          -0.92160161569545   -2.29520810598675   -2.11502145601589
O          -3.06508320334805   -1.41903873568820   -1.27246531757545
O          -1.02107322289355   -1.01050696982093   -0.05214370030186
O          -1.35363036295497    0.07144379372724   -2.19532856132592
H          -1.63242305149747    0.83676614319936   -1.61959159168006
H          -0.05578717248801   -0.90343246121442   -0.30735213492720
O           1.25652715678276   -0.95143751130384   -1.19461376402512
H           0.88674043725172   -1.64028023014331   -1.76595018623121
O          -1.86182940093613    2.01660354165740   -0.55453074166799
H          -2.75248834509860    2.36424500629259   -0.62515854769552
O           1.20121377376090    1.00244449475025    1.85981583790685
H           1.60165125622286    1.71405827822080    2.36185858730027
O           1.02486137014399    1.77308586176948   -0.66888351261552
H           1.20698369912177    1.30111024395370    0.91414674399915
H           1.15996400679768    0.94197592727042   -1.14677614396527
H           0.11456186521581    2.04529230256914   -0.83543219216570
O          -1.53043938716284    0.94726277202263    1.81029503369292
H          -1.76888646581390    1.66726404568795    0.38021274632936
H          -1.69415216025597    0.04235206781723    1.51917738517617
H          -0.56600001709108    0.98335777093592    1.97438877910874
N           2.35584130146492   -1.70520006119729    1.10251833692602
H           1.81820119702091   -1.36563528810098   -0.48540460569192
H           1.89465828046121   -2.49790500559499    1.53096412285449
H           3.34878771514861   -1.78653310176293    1.28038170344531
H           2.02093173079275   -0.86400556533420    1.56767583762872
