    26
        -50.46026503  Gyration_radius:  2.46677064286 Dipole_moment: 6.827
 S          -1.25696696031979    1.82537710717545   -0.42502637644119
O          -1.55295446152568    1.33473291169422    0.93324357725436
O          -1.05775487903483    3.23805330416849   -0.46464676248469
O           0.19921946411451    1.17052520842275   -0.75468215368687
O          -2.11749686594698    1.22858958330257   -1.41630933430167
H          -1.95131220772976   -0.34593019606844   -1.52043965636835
H           0.76419372926606    1.65046830726983   -0.14130112748933
O           2.51424205415492   -1.60277436326302   -0.43283233357334
H           3.32101424806637   -1.19633967022808   -0.75181437118706
O          -1.84500794968692   -1.33836372498030   -1.53525771981292
H          -2.64664058155432   -1.67562932645825   -1.93802751348079
O           0.76852984411744    1.98996612379782    1.75916860143298
H           0.82400246502220    2.90941626721278    2.02334957763929
O           0.76503130660772   -1.03982976333439   -2.29450779866200
H           1.85340766054846   -1.50594988416235   -1.17341213618531
H          -0.11703574772523   -1.42748162757188   -2.16889618105592
H           0.64297541229848   -0.11618602344518   -2.03035796825020
O          -1.35183016535552   -1.23851643381990    1.11801697164570
H          -1.50537189471704   -1.50584892692619    0.19072383550095
H          -0.19502113528165    1.82219363792062    1.56886100969120
H          -1.60171399675711   -0.28117524334627    1.12956956294287
N           1.13006196091220   -0.77629449535088    1.67966888445963
H           1.73592945567097   -1.07243851927124    0.86674415989803
H           1.16324460605304    0.24560513416242    1.80619791202960
H           0.09513674112784   -1.04479989009655    1.44249713464075
H           1.42211789763249   -1.24736950678562    2.52947021584797
