    26
        -50.44258722  Gyration_radius:  2.64630020534 Dipole_moment: 5.720
 S           1.83550301502598    0.03347456748807    1.49026156727597
O           1.46029286602275   -1.29643994577001    1.06260792279027
O           3.06556336665048    0.18288625439177    2.17082604620443
O           1.78352017666645    0.94841599541866    0.23736910582265
O           0.70109085411755    0.59893731942047    2.38681654774310
H          -0.18416219861087    0.38068649358881    1.98944976292718
H           1.43812228041321    0.34962795690904   -0.51697792081619
O          -1.27422276542073    2.45736461573453   -2.13798433131063
H          -1.62430926801057    2.75289226913768   -2.97941782503221
O          -1.63868457467379   -0.12134133740025    1.47603178900497
H          -2.32137307509262    0.14336368071987    2.09528419237055
O           0.92964031766963   -0.65252419279469   -1.51996276398226
H           1.09347883175984   -1.39069679605603   -0.91900289816995
O           1.39728637666045    2.08991313166403   -2.40581606546761
H           1.79379927447570    2.22771963220243   -1.53965082099982
H           1.43421363915921    1.13945154174820   -2.56347286283093
H          -0.29839574184441    2.43822011650178   -2.23835668451327
O          -1.59306533534572   -0.08632945977103   -1.31102658638336
H          -0.06601845204613   -0.50874017605112   -1.52037586456638
H          -1.72249237585614   -0.03933195520090   -0.35178115404285
H          -1.60452875069882    0.84310395239091   -1.62375289048666
N          -0.94218853880678   -2.62526255978499    1.77548349695879
H           0.02734375772866   -2.37920315281607    1.56814528305350
H          -0.96157807257833   -3.06764489087319    2.68528644081407
H          -1.48359570514081   -1.11376396726076    1.60056102285923
H          -1.24523991222945   -3.30477909354544    1.08945552078026
