    26
        -50.44258725  Gyration_radius:  2.64620377719 Dipole_moment: 5.720
 S           0.83016078048477   -1.66799062541823   -1.45559919604981
O           1.21874583398589   -1.85754895614231   -0.07525908643113
O           1.05662358613171   -2.73481862959180   -2.35513455470126
O          -0.66576241435186   -1.25353552347929   -1.45686979773827
O           1.54704846510411   -0.40194456005037   -1.99758149983641
H           1.51718553445103    0.32141904096075   -1.31565080978507
H          -0.92301198716152   -1.17723051606664   -0.46951180580363
O           1.65665936554811    1.45260943771105   -0.16121293750837
H           2.19314474844821    2.18385409424042   -0.47283513104454
O          -2.74004154723670    2.15268355182849   -0.29347200718938
H          -3.51602928206344    2.59309978863751    0.05553821597322
O          -1.15092211402518   -1.11302872978549    1.01807121750601
H          -0.31401772238249   -1.55894658237205    1.20147584193146
O          -3.36704012501170   -0.44217404574126   -0.76073666561550
H          -3.03177358187059   -0.85662057260706    0.04268974680550
H          -3.02889966970181    1.25112326438111   -0.55106217395409
H          -2.79723840137270   -0.75083409726983   -1.47246294947897
O          -0.70674885560902    1.42509066349511    1.31664406491339
H          -1.00522980534519   -0.14317879502213    1.24223529581643
H           0.10224866228157    1.56243916326686    0.80113064916605
H          -1.43059506347104    1.80805622055129    0.77706710063691
N           3.00579626880227   -0.19011713898436    1.36399878750996
H           2.22277840142734    0.91242774584757    0.48076272946407
H           3.99366463005454   -0.34990545769638    1.21427794828455
H           2.83627474583875   -0.18558480491263    2.36174471776482
H           2.49697953707380   -0.97934394578136    0.96175230936316
