    26
        -50.44023244  Gyration_radius:  2.54285982194 Dipole_moment: 6.125
 S          -1.86080212960424   -0.34636461520221    1.65694513997131
O          -0.72931334193569    0.53095928476498    1.53025799434453
O          -2.90183435939984    0.05867137271385    2.52922258736774
O          -2.40800165530789   -0.60067952954854    0.20941182691919
O          -1.38203783011665   -1.76405086759291    2.04444828334461
H          -0.80899055804592   -2.08051105762004    1.28503007588049
H          -2.15910004995354    0.19298630016759   -0.32998209045467
O          -0.01775901034251   -2.54575365643505   -0.00150387481579
H          -0.53531428239524   -3.25495540395488   -0.38814704586478
O          -1.73592883307700    1.51165633623581   -1.16960526715810
H          -2.42775446167704    2.14341648057794   -0.96500166599942
O           2.32107827783046    0.66308241259505   -0.96415877373064
H           3.23235870927967    0.53631320182930   -1.22943468904909
O           0.10857419566936   -0.67884874587084   -1.85976040345923
H           0.02066715651370   -1.83296330965648   -0.69596627532054
H          -0.61255613747708   -0.04241226607977   -1.81850641284421
H           0.92286958165675   -0.18638511149192   -1.64286957745420
O           0.58905995776492    2.75723923339559   -0.88672223346810
H          -0.88494409380188    1.95297886669487   -0.91413970072661
H           1.25744827561497    2.05280325571269   -0.78970116144414
H           0.80700513602206    3.22820637566846   -1.69352202929074
N           1.87711978351471   -0.51959988737929    1.31844447801813
H           1.68710139963028   -1.50532304636943    1.17923452151794
H           2.21563626746700    0.22048948723553   -0.05688728586290
H           0.97783874109075   -0.06916270429086    1.50465223405552
H           2.44757925109655   -0.42179240613913    2.14826133554232
