    26
        -50.44258717  Gyration_radius:  2.64631249784 Dipole_moment: 5.720
 S          -1.16301764841861   -1.77219273702150   -1.04932587063439
O          -1.61953718325058   -1.49498499797533    0.29494839487124
O          -1.95326503877427   -2.62977905031565   -1.84845665879863
O          -0.95060810828186   -0.40416133731374   -1.75152404366593
O           0.27416876957773   -2.35400206772326   -0.96923688238641
H           0.80896879134920   -1.84292066799218   -0.30441618512621
H          -1.14078994372550    0.29808912619053   -1.03214139499443
O           1.64773752667041   -1.16035524124593    0.90470395174088
H           2.49331455311406   -1.59925309819734    1.01419955718259
O           1.79660694873182    2.68639285390818   -1.33742913740575
H           2.03968102954299    3.61247207808126   -1.37210040113765
O          -1.45633879254829    1.20857457289840    0.12576212099289
H          -1.82361905054099    0.48083867053834    0.64383448764666
O           0.97651024079736    1.54484419795594    0.96050606896094
H           1.33206821961713    0.64342023662838    0.95052112208385
H           1.38012550885242    1.99525001864995    0.18850833454799
H          -0.55560937668334    1.40937894467995    0.52624349232806
O          -0.67384729960721    2.41045361781519   -2.41721797323138
H          -1.21924314465910    2.40931026297811   -1.62213128045867
H           0.95173365616579    2.60596737203008   -1.82968565362277
H          -0.73199320468217    1.51940526884336   -2.77649046162333
N          -0.12154988878555   -1.95985222021970    2.65822784140370
H          -0.11611150736022   -2.90795951806665    3.01158798293677
H           1.04865004905948   -1.46147943923261    1.66288567117909
H          -0.85297958295562   -1.89514620257260    1.94802106896834
H          -0.37105550319483   -1.34231064336059    3.42020585824028
