    26
        -50.44258724  Gyration_radius:  2.64633876018 Dipole_moment: 5.720
 S          -0.14856496612662   -2.19686542395612   -0.86248805289890
O           0.79103157232068   -2.06523507238759    0.22938869885719
O          -0.49833792468681   -3.50291098069747   -1.27531805438390
O          -1.41302297751310   -1.38254301405883   -0.47843123151277
O           0.41045210508529   -1.42299695107319   -2.08685026123283
H           0.78879028202290   -0.55170376934663   -1.79202221742716
H          -1.18451154995576   -0.93922270641582    0.41491743932658
O          -2.25995088632573    2.66805435941944   -0.09471781133868
H          -2.72760355926918    3.39981594504875    0.30993186034466
O           1.58436841241069    0.78273640928430   -1.32554352325921
H           2.01561182392455    1.19448454079218   -2.07660496832546
O          -0.70636497919656   -0.36434642974077    1.72254025320244
H           0.05450923475970   -0.95883567467996    1.74640314901417
O           0.16232238462100    1.89779111816483    0.79706467956505
H          -0.66805092219761    2.29464962367591    0.45830860082344
H          -0.34588387217292    0.54032263068846    1.47029733418414
H           0.66154051205926    1.62924763010703    0.01108053902184
O          -3.37305162151324    0.35611736826451    0.77695311298630
H          -2.77100361464549    0.12447861492753    1.49352393864859
H          -2.75222734177036    1.85663876058388    0.15417212156212
H          -3.23277760629583   -0.30566903826679    0.09227427092515
N           3.24124299950525   -0.64078321929019    0.11421338664389
H           2.50473564974781   -1.32921628816662    0.27907553886378
H           2.30065463798374    0.32116713975534   -0.77930809214133
H           3.54216864178478   -0.28456328643986    1.01246784222916
H           4.02392354543742   -1.12061227619216   -0.31132855368783
