    26
        -50.45977526  Gyration_radius:  2.60924502755 Dipole_moment: 4.009
 S          -1.44044778234923    2.25363815792197    0.02800558237169
O          -0.17977162960667    2.16073662845811    0.74109918381826
O          -2.37637849428691    3.20254801882628    0.54010786824493
O          -1.07662764722122    2.75140195747330   -1.45994367590069
O          -1.98877554438881    0.90473916079773   -0.18638466197005
H          -1.10781184068632    0.28176974049262   -1.37196631491152
H          -1.49370367652709    3.60540795967076   -1.45790365656951
O           1.91125741481672   -2.97938656760590    0.36599677364353
H           1.88126008898419   -3.79528058283038    0.86660454242106
O          -0.50033005683630   -0.13482477656322   -2.03528266357590
H          -0.82009835259774    0.14497924301337   -2.89389351603071
O          -0.99560458185739   -0.55489417017320    1.69099394779241
H          -1.34425432637336   -0.20203052286825    2.51079087401678
O          -0.52671625020681   -2.42665469008888   -0.47847922519867
H           1.02501931015108   -2.88787683187737   -0.06842793254370
H          -0.92494081778881   -1.99508189644548    0.28736740319617
H          -0.50287084625770   -1.74573840060142   -1.17157348959218
O           1.59820889718859    1.15350867824687   -0.86590847772361
H           1.01475591638275    0.68582535830911   -1.49172937449655
H           0.98881000464641    1.73324068593579   -0.35189957928699
H          -1.39372514086805    0.01200162580190    0.97584945372036
N           1.66783620969592   -0.44121817463004    1.18592019457721
H           0.65682992266433   -0.41097442413449    1.46044892772817
H           1.91931730447084   -1.42755181763990    0.94203601333091
H           1.75904850606682    0.18574217310244    0.30799190896671
H           2.24971339283517   -0.07402653258340    1.93017984396310
