    26
        -50.44619982  Gyration_radius:  2.55319159319 Dipole_moment: 7.613
 S          -0.88417000932044   -2.24818529991421    0.11102141508445
O          -1.65647832011121   -1.23317205265314   -0.56955511494235
O          -1.10848848523221   -3.59083988367550   -0.27210247153204
O           0.62131882681927   -1.85502385858460   -0.05543022666231
O          -1.07225299040714   -2.10975105346227    1.63322344568750
H          -1.10064669925449   -1.14861059108689    1.94581224811328
H           0.67920014707112   -1.68391481214434   -1.05649894277730
O           0.31610588116226   -1.33373042943976   -2.50175113417890
H          -0.63865980508594   -1.29268157704842   -2.36691968878456
O           0.81468308421398    2.20628443792883   -0.31922888338365
H           0.98061027493275    3.08962728958114    0.01206326537248
O          -1.24277215390649    0.31765449290914    2.47382239793410
H          -2.03414985670855    0.33955132615588    3.01533525567928
O           1.12463338417093    1.19401604277864   -2.82235969445639
H           0.98101452666197    1.61244569267729   -1.95236118481441
H           2.05689743584002    1.28553836422003   -3.02477240147380
H           0.60318887075799   -0.41243340590185   -2.70919549385434
O          -1.75943062371147    1.34045078720769    0.16910293856888
H          -1.85000268404749    0.46363056531388   -0.25052786881131
H          -1.47134945348186    0.80739164154478    1.62048701006928
H          -0.91997105663913    1.71170199950726   -0.15743574940220
N           1.58002695837778    0.45917107023128    1.50255494134022
H           2.48350854068886    0.45385584058914    1.95866539755705
H           1.46574528746308   -0.43137331759276    1.02493534020316
H           0.86500080495305    0.49691303959042    2.22171521711914
H           1.16643812487114    1.56148369127972    0.36939999222293
