    26
        -50.45509189  Gyration_radius:  2.7028665085 Dipole_moment: 5.398
 S          -1.77733999272143   -1.37066044491287    1.75986440868973
O          -0.65397600130372   -2.30178086724220    1.60703777517489
O          -1.32761983726823    0.00237952883277    1.80149066890443
O          -2.81113366989539   -1.60949017129311    0.76801324789604
O          -2.42641312604930   -1.68870225119276    3.17550708635806
H          -2.81950732855740   -2.54930768688659    3.05652191445598
H          -2.33645082715136   -0.67599308773928   -0.48616371231808
O           2.56181027883842    0.35780674246233   -2.00571981638528
H           3.16061974906379    0.73316671285724   -2.65180854574600
O          -0.17409295550153    2.01930791785905    0.45115415583328
H          -0.64958773152916    1.37883975506367    1.01487922331219
O          -1.84813023063740   -0.02268996392808   -1.04651702972518
H          -2.00367334151468    0.82175246393081   -0.61018896809045
O           2.45768374793086    0.89025167766814    0.61237175507818
H           2.69505498354681    0.81073861008602   -0.33798831301588
H           3.20405082292141    0.57490798774229    1.12283051535142
H           0.72510869608739    2.03638126378815    0.79467436090638
O           0.21937869232745    1.56110557233189   -2.19382460259811
H           1.68679998012730    0.79683350422877   -2.16426516527399
H          -0.55968129215816    1.03666057589666   -2.40294104753309
H           0.07364122518676    1.88158142393559   -1.27767163718090
N           0.54127365382146   -0.94201056207098   -0.21223248690742
H           1.08991110278133   -1.41702005531945   -0.92458092007769
H           0.16456759196783   -1.60768537343770    0.54348804648951
H           1.12764316220543   -0.21488024102235    0.24069760358491
H          -0.31993734245684   -0.50149305178916   -0.63462850703273
