    26
        -50.45423378  Gyration_radius:  2.44497486649 Dipole_moment: 1.976
 S          -0.80129949551048   -0.13869129947140    0.73744013057839
O          -1.88374861969557   -0.30454089639344   -0.23940201595130
O          -0.26976009548276    1.25048511108785    0.67237696004577
O          -1.26165940987417   -0.42544361755041    2.11201410777222
O           0.31629173602506   -1.05530194358158    0.39052513221025
O          -1.40516767781974   -1.47857803144829   -2.44898293040725
H          -1.56288607674984   -1.14851649327686   -1.51217007282182
H          -2.27370485469442   -1.66088368246902   -2.81156326346470
O           2.12783397827636   -1.34720152305981    2.23575393974260
H           1.95925301848754   -2.19585011200975    2.64809142836878
H           1.48184983679674   -1.28984214900902    1.48168758375244
O           1.77230508048763   -0.06639390971027   -1.44477420160828
H           2.28613899343664   -0.82095560674777   -1.73985464101887
H           1.20386684034386   -0.40982703403519   -0.68438547136536
O          -1.42762108834146    2.01334391979519   -1.44917776216000
H          -2.14804422367828    1.39239118011055   -1.25893417018380
H          -0.88015280438921    1.90473094604599   -0.61385525178562
O          -0.08074889191179    0.60886658626105   -3.00594571865985
H          -0.62461899593756   -0.26177606421739   -2.93531889886264
H          -0.64143807181401    1.31090456838219   -2.40818898171291
H           0.76393503031972    0.40068478908056   -2.43032141284115
N           0.71119414896960    0.77702841022604    3.00098353298920
H           1.48092796631790    0.07911621566415    2.91822350370595
H           0.75644227788977    1.34592815284891    3.83744408200885
H           0.64438132168556    1.32583070716020    2.11574340496925
H          -0.24356991314214    0.19449178628081    2.83259101667644
