    26
        -50.44974532  Gyration_radius:  2.55349440019 Dipole_moment: 5.642
 S          -2.10758108727931   -1.27264017104220    1.03604361945927
O          -1.15376700180051   -0.26106066488007    1.43885438004496
O          -3.04013420445696   -1.70955194347866    2.00310156901609
O          -2.86874502844368   -0.75464398691754   -0.21211487944150
O          -1.31262335959338   -2.49526300746255    0.50624436717670
H          -0.44158582682644   -2.22297645100975    0.09636333155235
H          -2.30082998101377   -0.15421777150931   -0.77157188153810
O           1.03248719841178   -1.92438836086428   -0.43256982986068
H           1.52791314539037   -2.74501079775687   -0.43029711323251
O          -1.52424135396108    0.95335193314853   -1.63700227642664
H          -2.17930860423188    1.46732924567255   -2.11224233259711
O           1.97540539821077    1.92421491763439   -0.21526481712480
H           2.43567070609290    2.66561447745887   -0.61009101254012
O           1.13238030051615    0.26903668034622   -2.11016704319997
H           1.16177562893657   -0.59603627680558   -1.67095471584185
H           0.18989375983844    0.48977669098634   -2.16323697439550
H           1.74236504780528    1.31247732536477   -0.96100364769498
O          -0.66341562652547    2.19285997015867    0.43743740492022
H          -0.86023837379999    1.42627658095162    1.00532922730030
H           0.30842165984895    2.19763094778823    0.32552406999585
H          -1.20548873123566    1.53040381963504   -0.86650587841720
N           1.70741232643874   -0.42583294182785    1.56164071825943
H           2.26665605469606   -0.68655274060520    2.36247913193067
H           1.37674076859921   -1.36090365739690    0.35523076136130
H           0.74816541530531   -0.27676396287952    1.86754090162280
H           2.05267178906656    0.45687014529536    1.19723290968416
