    26
        -50.44619983  Gyration_radius:  2.55323740621 Dipole_moment: 7.613
 S           0.68486244639241   -0.04539443739209   -2.31918564819170
O          -0.19485950859163   -1.08617543664197   -1.83668559553666
O           0.64790490336576    0.23606819802761   -3.70454633408217
O           0.37547247837283    1.23350991105370   -1.47226585727549
O           2.13326810335584   -0.35249690338824   -1.89558118971332
H           2.20363839154385   -0.73267228666369   -0.96135346189067
H          -0.63865983852701    1.28172934798058   -1.53646268370655
O           2.36397732839113   -1.40769375225795    0.44143063600433
H           2.91105089949458   -2.18479687751345    0.31168084456234
O          -0.87372812982525    0.00657766789499    2.20659683631413
H          -0.77239204285203   -0.16625253789371    3.14331820525415
O          -2.11201773690789    0.89801861317877   -1.69335877377397
H          -1.95799751700655   -0.01649498391835   -1.96053928130429
O          -0.10097576001863   -2.12358378905034    0.63207490636892
H           1.42567706645826   -1.74660491443915    0.59932959204584
H          -0.53673266460182   -1.45081164379981    1.18586519981891
H          -0.29145058710223   -1.87836734486957   -0.29348351449566
O          -3.06562227570522    0.78652003079537    0.80150428032811
H          -2.31897507360180    0.45855742350350    1.33773337042006
H          -3.31643850691117    1.63731377136264    1.16454539032225
H          -2.54706732167427    0.85520222503671   -0.80843058055522
N           1.29013426779714    1.23544481170677    1.33218396194714
H           1.70219818373481    2.05739752017417    1.75521573260514
H           2.00299446182003    0.51460300709437    1.28628718538553
H          -0.06175290352428    0.52401638811880    1.91217488567013
H           1.04749131618043    1.46638599189735    0.37195190342993
