    26
        -50.45078029  Gyration_radius:  2.42174003769 Dipole_moment: 4.013
 S          -1.17014799808774   -1.24833136833862    0.87741864351518
O           0.20133877295084   -1.13073241227835    1.33144171181091
O          -2.16484684609278   -0.80781971038878    1.79238830806492
O          -1.27936199133010   -0.39306951658296   -0.43339952867159
O          -1.42296946653619   -2.65693474488455    0.38823363584618
H          -0.53392973654906   -3.00413147019570   -0.04811343142065
H          -1.48714078925632    0.53184499293812   -0.09451347618870
O           1.82651918068190    0.23177399438094   -0.42485637899867
H           1.30841715275360   -0.23548096880080    0.24924970959794
O          -1.74608688638804    1.76248040088113    0.86586332725672
H          -2.40536309385659    1.32923114288691    1.42096187918022
O           0.78819867197147   -3.24560956080281   -0.60507238018220
H           1.38979258765036   -2.89307494790420    0.05861645384754
O           0.73441616064132   -1.27874251619099   -2.31412160493283
H           1.30895618759055   -0.68799024200413   -1.76981721120051
H           0.82983602416366   -2.61517653777779   -1.38272328997570
H          -0.16267579975958   -0.96416784136625   -2.16283681825996
O           0.50971805049936    1.40197136526294    2.21801417669058
H           1.34351692631058    1.63654511357315    1.80054138268811
H          -0.93140546649667    1.79826060534517    1.42529397608836
H           0.44148456794100    0.43260872778703    2.15850197021191
N           0.45590714683461    2.52327372533249   -1.08996309221689
H           0.28308198325963    2.44886970806814   -2.08485659053796
H           0.96513162818334    3.38405527802119   -0.93228042478513
H          -0.44194840871857    2.60461124414179   -0.62669447594420
H           1.35956144164349    1.07573555896197   -0.61727646147109
