    26
        -50.45812141  Gyration_radius:  2.42433740711 Dipole_moment: 3.419
 S           1.35585697552323    0.75169290847951    0.91880127397301
O           1.09883187382056    1.01906235164811   -0.58099681367276
O           1.53421187060974    2.01732871392005    1.54767901936047
O           0.06501118524213    0.06829574468461    1.41096353246544
O           2.40309251011766   -0.22292106408007    1.06765193850579
H           1.95697607163553   -1.70803857581184    0.60924422414060
H          -0.79350094796589    0.58820649292538    1.05521419752308
O           1.65082149205450   -2.56278912881151    0.21088834824500
H           2.39683931112519   -3.16213471847734    0.26732840155103
O          -1.88057580729436    1.20431121562526    0.39096472594705
H          -1.96084070746386    0.63956770079254   -0.39637361445223
O          -1.85973038247384   -1.05992867056242   -1.23097995532621
H          -2.63703792029578   -1.45886270810570   -1.62396990470468
O           0.77210050516987   -1.11456525634566   -1.90171137892989
H          -0.20291733053654   -1.13931047287464   -1.85232044842943
H           1.03794140573456    0.16670051747540   -1.14643095615708
H           1.10140273438152   -1.79482980791806   -1.28299465848807
O          -1.02581816494911   -2.42251315458962    0.87215547450380
H          -0.87719097185820   -1.68051882157416    1.47203852867461
H          -1.64266958340388   -1.60357405479958   -0.42673375857064
H          -0.13197231622286   -2.72671720231230    0.64407060349852
N          -0.44145167409321    3.35763367266322   -0.03368737980761
H          -1.44777092601326    2.07491966727185    0.12856966234769
H          -0.74085042956175    4.28305816006904    0.24731104280681
H           0.30768368600327    3.06257199498177    0.59335668288374
H          -0.03844247926057    3.42335447570803   -0.96003878785344
