    26
        -50.45481290  Gyration_radius:  2.63493198515 Dipole_moment: 5.288
 S          -1.60577953725095   -1.76355283876574   -0.99493093172188
O          -0.64249664314034   -2.66747861198778   -1.57837236187886
O          -1.80892011781391   -2.04406844766803    0.43066824344818
O          -1.28111136811362   -0.36426147286588   -1.22058723607973
O          -2.99968887892084   -2.01404406405824   -1.70805373315803
H          -3.11035248677300   -2.96084508833263   -1.69293904062440
H           0.37672904147206   -0.42510051055070   -1.37664245506118
O           1.28892879319614   -0.79002979932218   -1.27929054152045
H           1.24963681042796   -1.59499923073817   -1.80911936690349
O           0.39798598100760    3.27213604361935   -0.82391487644429
H           0.25116352175710    4.18724617270317   -0.58370397574180
O           0.74862810104319    0.90389612675119    2.16702652540799
H           1.08024805627471    1.34573591004481    2.94886743970140
O           2.18911080911561    1.52817642386929    0.10816034549867
H           1.33657158341478    1.19455912115001    1.40181879705097
H           2.11368722635437    0.79109460223292   -0.51136292505163
H           1.66072870474249    2.25215472815633   -0.29659548332627
O          -1.39770608031835    1.75885449353051    0.43805498193942
H          -1.50805453604081    1.01299412029707   -0.17984789602259
H          -0.86432356514920    1.42124483350908    1.16990820917133
H          -0.35750908250617    2.76128726436978   -0.44271127205986
N           0.59573910917465   -1.57640536309030    1.19015804585254
H           0.63253644953121   -0.70223118187014    1.76303042611684
H           1.02180321253500   -1.35540071206267    0.25051358429273
H           1.07005819954610   -2.34819454404632    1.64608758823273
H          -0.43761332352568   -1.82276795481508    0.98377787889701
