    26
        -50.44103447  Gyration_radius:  2.55178928081 Dipole_moment: 5.556
 S          -0.03127358656766    1.76208414613141   -1.74492875819336
O           0.39613076593587    2.45459315597441   -0.56188353274074
O           0.41643774903840    2.24147304187974   -3.00068973100630
O           0.37257504124587    0.25323703212206   -1.57256271181835
O          -1.57295177625273    1.65033891925181   -1.75306543683958
H          -1.88676138932063    1.52967886785842   -0.80256691923009
H           1.21162751737869    0.25841686827014   -1.01692645010842
O           0.18479050345913   -1.69689384099819    1.60847129618381
H          -0.22264918228021   -1.95473889599415    2.43599571895450
O          -2.32389204894430    1.35275105087962    0.69434177652902
H          -2.66607452808978    2.20233512177156    0.97931308992488
O           2.49917892790254    0.25313009863487   -0.16012487838917
H           3.28052887658545    0.56185977366567   -0.62101496012569
O           2.45506717992490   -2.34833030377693    0.32004406532409
H           2.12091314894701   -2.79320915915622   -0.46134906526029
H           2.63677881640039   -0.70091571592497    0.06492037211003
H           1.68498733446836   -2.22232237993467    0.91029289732236
O           0.02953184396992    1.10909313435712    1.73973124987963
H           0.43414466941587    1.63053878191896    1.02242519967801
H          -1.45062745090852    1.23466912488274    1.18208530086010
H           0.35935460340353    0.19977774387265    1.65659265004137
N          -1.68993482481609   -1.43238214875223   -0.25629811290938
H          -0.54213574538681   -1.66046438193758    0.92226195169904
H          -1.12771719818825   -0.98712676960642   -0.97634525563691
H          -2.23077638066500   -2.16845072232840   -0.69216929148908
H          -2.33725285665839   -0.72914255305917    0.08344953523971
