    26
        -50.45514023  Gyration_radius:  2.75198466032 Dipole_moment: 5.660
 S          -0.21138520954088   -2.40788677872345    1.60673804176150
O           1.20988927696884   -2.03942196653900    1.62675046596351
O          -1.07577199275272   -1.29539403130947    1.90826158567997
O          -0.54807727380054   -3.09222398184316    0.36575696796745
O          -0.39631832537161   -3.47358673720385    2.76793788501220
H           0.17469593204000   -4.18248263830329    2.48749197410444
H          -0.46175621928269   -2.16929534614628   -0.90844711833964
O          -0.28564171542159   -1.57258681335063   -1.69035449271155
H          -0.14771162566781   -2.15872379743455   -2.43571972111607
O           0.92569514342258    2.14733410540277   -1.82969398980441
H           1.06288746267170    2.78100262859943   -2.53431311451220
O          -0.95636068843465    1.16816859528512    1.01022903116896
H          -1.14752160910072    0.33373347342069    1.49071522966097
O          -1.56720550158285    0.90154295293839   -1.56828596446715
H          -1.44450035550315    1.10665071732575    0.15594434937376
H          -0.74906976750678    1.35390348356055   -1.83618795248660
H          -1.38823209688891   -0.04141580775756   -1.69648510425936
O           0.47636326691869    3.40952688186810    0.52254385030704
H           0.83346783786948    2.66746323379719   -1.00306655658131
H          -0.06439142752523    4.19841167010815    0.58183256968040
H          -0.05300823589341    2.68986364434599    0.91390194319464
N           1.19368931183133   -0.04961854542636    0.00341773988635
H           2.02280367341161    0.49079203186585   -0.22150337411843
H           0.79795162590659   -0.49305282173858   -0.84716854621376
H           1.35842642078401   -0.84058687409727    0.71029002798111
H           0.44108209244816    0.56788269137992    0.41941428284594
