    26
        -50.45147865  Gyration_radius:  2.46521697218 Dipole_moment: 6.110
 S          -0.74827616027637   -0.10768626485777    2.27674970058592
O          -0.87994116692713   -1.04071870465691    1.17719224263807
O          -0.73425053164155   -0.67366782123206    3.57419381535263
O           0.52434904376158    0.75079978847267    2.01994830854537
O          -1.84307524395847    0.96403984786589    2.15876669066808
H          -1.67029664911573    1.40108582934465    1.27132161924637
H           1.27738365265355    0.21384576451197    1.62060806402856
O          -0.03720284964156   -1.03630104537037   -2.54925623020137
H          -0.27543710513993   -1.57529409951019   -3.30448024200444
O           2.42655666356655   -0.57689297105811    0.92490414335585
H           2.94128364003678   -1.04676493929486    1.58341420171035
O          -1.26721410687164    2.06193257702942   -0.09629295452785
H          -1.20751877127418    3.00467489661920    0.06715860756173
O           0.97184083721541   -2.29211281700725   -0.33717027958117
H           0.20954113714829   -2.10134570478782    0.23565355731692
H           0.72581865160486   -1.92238693573916   -1.20784946708241
H           1.94777212773794   -1.28239777388427    0.38559972804331
O          -2.16272546637627   -0.41471446179864   -1.10583598964731
H          -2.18245755070691    0.54302009134563   -0.99634586635247
H          -0.88682075899982   -0.81893554197332   -2.08356655086518
H          -1.82908805130295   -0.75644380582423   -0.25516459135941
N           1.03510562923572    1.33455191768904   -1.11116962549996
H           1.51126587347199    2.04976124552847   -1.64641278738346
H           0.82291910587403    0.56646865609695   -1.74253685063838
H           1.68178459829646    0.98409870035979   -0.41393935586107
H          -0.35131655834040    1.77138356199167   -0.44548987808238
