    26
        -50.45730963  Gyration_radius:  2.44899892597 Dipole_moment: 7.977
 S          -0.55856207830827   -2.32638439482602   -0.36344497698623
O          -1.62174100458828   -1.36313999494391   -0.61556930342624
O          -0.68600858865878   -3.58795143672304   -1.00184421478304
O           0.76613129257409   -1.68058735898811   -0.61910336205832
O          -0.56526272377957   -2.53088092026797    1.21228343525113
H          -0.89629464698352   -1.67332347575702    1.52909558594062
H          -1.61279466650778   -0.06364031067752   -1.47337345318567
O          -1.05963463593656   -0.03690616997169    2.15979691400962
H          -1.86317824131153   -0.00271595216122    2.67979547351305
O          -1.58885837492975    0.81337190402941   -1.95255047845071
H          -2.37755089823917    0.83517944586298   -2.49534499262008
O           1.74382879654146    1.94813649728630   -0.09623609657719
H           2.43779789439149    2.56482464670346   -0.32971413498278
O           1.10952271752330    0.49958349074904   -2.12625376298557
H           1.53207542304339    1.42770893574681   -0.93958372424584
H           1.06812920073709   -0.39362170982160   -1.72575919445737
H           0.18015428488399    0.72415437932031   -2.30607380964892
O          -1.01797953986369    1.94179979173530    0.45741095069075
H          -1.33731286073392    1.63134978323574   -0.41165907609287
H          -1.13417833893318    0.70181107860906    1.48763139417109
H          -0.08213372738382    2.15266941494439    0.32465101429922
N           1.53528576998089   -0.30816572075815    1.35383919618587
H           0.71078196258648   -0.22045371324658    1.96245652784633
H           1.76533512412370    0.62124062510418    0.93938016923247
H           2.32140526012158   -0.71087201190864    1.85065691577532
H           1.23104259964427   -0.96318685330119    0.49951299359775
