    26
        -50.44947485  Gyration_radius:  2.65917520388 Dipole_moment: 5.478
 S          -1.17299035351497   -0.01158760155072   -0.81493848454449
O          -0.96547496401427   -1.36218815171499   -0.35089290103281
O          -0.69228213808290    0.25646685787154   -2.13204305169564
O          -0.52362000726651    0.95523688186960    0.20287904490045
O          -2.65259032751558    0.36061837502447   -0.72188456991157
H          -3.00336960884473    0.06422226506340    0.18150058655096
H           0.48520790753124    0.69465986684548    0.35146507245566
O           1.81962720629053   -0.42966556099665   -2.90559522207835
H           0.89870422858771   -0.12114644658667   -2.85361021065794
H           1.85795664416631   -1.19265442209140   -2.31167829895206
O           1.85165488786964    0.26240210674237    0.53625859235213
H           1.87110110030882   -0.65359718397603    0.19710602612030
H           2.36758427887490    0.79451409570126   -0.12282569828179
O           1.49522402646010   -2.14498111770226   -0.69069842120444
H           0.53055724083152   -1.94812623771386   -0.60967312960107
H           1.61005814520740   -3.05189216116026   -0.40210053610862
O           3.11468552916559    1.38923056569540   -1.48315640688245
H           4.05389256172245    1.27503734795849   -1.63481101067094
H           2.65460676701912    0.80431437332594   -2.13688575050117
O          -3.53321864396974   -0.19581276313613    1.61089605306070
H          -4.29408415511505    0.37092672376414    1.75666221115626
H          -2.80311267165204    0.13928264910112    2.20537957650451
N          -1.49151819357733    0.83659821068891    2.97681390829402
H          -0.91275197835197    0.14551601839716    3.43741435362811
H          -1.55834753317653    1.64243261656070    3.58603633270477
H          -1.00749993920077    1.12019270324181    2.12838192472846
