    26
        -50.45489745  Gyration_radius:  2.61948177075 Dipole_moment: 10.029
 S           0.70724780618894   -0.61321982043628    0.86904136646535
O           1.28678618117000    0.44085328327082    0.02830475159528
O           0.61399613885420   -1.87966903842711    0.20111867392403
O          -0.73363179818653   -0.11488257314489    1.24368040573687
O           1.38784691785877   -0.66678380317740    2.16812309194798
H           0.89952735096298    0.45878661927658    2.82557995152150
H          -1.33412152574825   -0.17049563235611    0.41451341491847
O          -0.42178163521676   -1.56861594329351   -3.82498179016311
H          -0.74555129202404   -2.13069951489652   -3.11032205453802
H          -0.19756141412707   -0.72976154812449   -3.40495158251350
O          -0.03030747741803    0.79706234533980   -2.21706436306258
H           0.25394130110219    1.63559161341952   -2.58318206406685
H           0.54155276533504    0.61847100315876   -1.43675504858824
O          -2.13048449189195   -0.24484263017625   -0.86537762998447
H          -2.08112645639407   -1.18564055067774   -1.11936645008902
H          -1.55651329148010    0.21856445768936   -1.50429062219401
O          -1.30083264983469   -2.77112975219113   -1.36589337754800
H          -0.52293867776015   -2.50586548816365   -0.82579723307937
H          -1.46526164793430   -3.69379957191685   -1.16824508388484
O           1.57249976893413    2.74143164021777    1.17685096250191
H           2.51232627124924    2.93177894842286    1.16734179714783
H           1.46458850397039    1.90254426962098    0.65121056217443
N           0.42336231436936    1.42789725999854    3.14533272148440
H           0.86259260167335    2.14283597123056    2.50152770231037
H           0.55486823910756    1.64147541921068    4.12822625847255
H          -0.56102381275979    1.31811303612885    2.90537564950753
