    26
        -50.44909958  Gyration_radius:  2.47718897189 Dipole_moment: 2.200
 S          -1.56424939724596    0.18373683934451    0.86139874697809
O          -2.48998196659573    1.24888966877180    1.01549707598816
O          -0.16633338391216    0.55373547605430    0.87812129313656
O          -1.87104779678405   -0.56039917293794   -0.45039921264861
O          -1.79592885972680   -0.86461359604132    1.96517558709913
H          -1.00137782506208   -1.49135605066594    1.98590293572715
H          -1.04911690268663   -0.95273499398301   -0.91092447204122
O           1.91117184404794   -0.30045798283073    2.48376531765364
H           1.19464945466409    0.31452585721881    2.26945547213715
H           2.49242940187266   -0.26043203308072    1.70839824043215
O           0.29430937868441   -2.33644142165145    2.07956130375353
H           0.98557975837244   -1.64019591636257    2.25539548786241
H           0.25641633037676   -2.88472989218594    2.86621412829440
O           0.09821334741289   -1.43528181127312   -1.78672388628893
H          -0.28730876967033   -1.92927800307755   -2.51248140209288
H           0.38590365415446   -0.54242634507082   -2.16791237268123
O           2.20399971228677   -0.05672502385112   -0.28255182393872
H           1.34773219598464    0.25060872256992    0.06606373090244
H           2.02471205769852   -0.93082649249009   -0.64108453542515
O           0.80608355857039    0.92664445570457   -2.53344259328873
H           1.56518034922962    1.00847033375043   -1.93972313673182
H           0.09387875964931    1.50239374849511   -2.15215321065458
N          -1.15379544510385    2.40008526674331   -1.38854503178503
H          -0.83253009966995    3.32124676869618   -1.11395035594637
H          -1.50107844185639    1.94362266988704   -0.55038334677237
H          -1.94751091468925    2.53193893831753   -2.00467391965626
