    26
        -50.45491983  Gyration_radius:  2.55041070958 Dipole_moment: 2.360
 S           0.65202141027834    1.20600295492807   -0.72531393075465
O          -0.49334669735158    1.48497450241712    0.11339794511767
O           0.30681996498958    0.91401467872426   -2.08808718279334
O           1.45753469620770    0.05790704994600   -0.11690054899329
O           1.62513883736787    2.37745670585392   -0.69389405722339
H           1.90863312562372    2.49081395396955    0.28103379747881
H           0.85638728831421   -0.72855085335242    0.23965121279650
O          -2.25228650490608   -0.53702646995771   -0.06346842268665
H          -1.82477977522796    0.33388046099759    0.02041747980964
H          -2.25001826538076   -0.73468300343041   -1.01100109385917
O           2.15409005242835    2.62870791117812    1.77562003764301
H           1.61609218527615    1.89492258123930    2.20549895035061
H           1.76133446203843    3.45626266427315    2.06261420735669
O          -0.04016147577809   -1.77218826938983    0.68005742009408
H          -0.94494785254570   -1.38254531575114    0.56131484382044
H           0.02990903224854   -2.44080018166435   -0.03729967831578
O          -1.38877082271561   -0.98939145700209   -2.69787171133727
H          -0.73280479461815   -0.27703887342365   -2.51050573245667
H          -1.61751737957789   -0.89429182034273   -3.62419288244931
O          -0.30283535164827   -3.22483881622674   -1.55309732732275
H          -1.00210180482927   -3.88042775021647   -1.53007101396474
H          -0.64942620875694   -2.46577117462033   -2.06076445746613
N           0.49176264786922    0.79745566075254    2.69672276778359
H           0.81481021872095   -0.15678960187361    2.59409402312783
H          -0.14194995281960    0.98510848905666    1.92214058140679
H          -0.03358703513480    0.85683598396527    3.55990478284547
