    26
        -50.45043313  Gyration_radius:  2.56814568151 Dipole_moment: 5.866
 S          -0.47930028916809   -1.02846613637737   -0.36881689887209
O           0.80784615611350   -1.05494812917213    0.28247331411783
O          -0.44146631454544   -0.70324011479992   -1.75950897146460
O          -1.38441364968799   -0.02028388992538    0.38636213226532
O          -1.20608576683406   -2.34753672594501   -0.16604441282857
H          -1.28264133547444   -2.54228423754711    0.83824676131654
H          -1.10651799968906    0.91846065722044    0.13726934210847
O           2.03942327254413    1.31074952993648   -0.29220055049437
H           1.75336710096729    0.41561682099940   -0.04783525424405
H           1.27431254761077    1.88266728908691   -0.15831137954076
O          -0.63053349757244    2.30904617786863   -0.33489367560810
H          -0.65890408521296    2.19956759984117   -1.34944310962201
H          -1.25388494357530    3.00770277181809   -0.12574469011211
O           1.75392516100347    0.87764914676352   -2.96361157435181
H           2.08196819476996    1.11880359136732   -2.07433233647169
H           1.35679351355003    0.00675837691349   -2.85680137095115
O          -1.26448262420785   -2.82118683046550    2.31852774016241
H          -0.74652221319543   -2.05055679648607    2.70715040223017
H          -0.73738062346944   -3.61003335628963    2.46491295409351
O          -0.71632923342700    1.82216769502702   -2.84333817570828
H           0.23886967554481    1.70327214816812   -3.06835699404269
H          -1.03301639449425    0.91124473188463   -2.77559175507260
N           0.24550113949380   -0.79035598511661    3.04157387885412
H          -0.26648571525086    0.07407005259757    3.16067825976653
H           0.67142753447131   -0.77274702488590    2.11524982964553
H           0.98453038685508   -0.81613737198942    3.73238651412954
