    26
        -50.46256816  Gyration_radius:  2.41326040647 Dipole_moment: 3.850
 S          -1.15916312380608    0.04229020349203    0.53144068359454
O          -0.24227663395166    0.35552176716593    1.61826043732642
O          -0.83618452849874    0.85788945196174   -0.64625412277872
O          -2.60236027964235    0.39125048058521    0.96704424045875
O          -1.14775599560264   -1.37685234377598    0.20185417902968
H          -0.42661020671531   -1.96674977805187   -0.98532792621845
H          -2.52422223112615    1.35363613966898    1.21388401466866
O           1.10484393927038   -1.92535788260309    1.83911498415590
H           0.65490629350372   -1.05489351745788    1.88241242127986
H           0.39137398313808   -2.55784917685125    1.72214000504463
O          -0.04897538171305    0.01135766766653   -3.00304169421043
H           0.77321987300229    0.49442422340166   -3.11882328101246
H          -0.48785494571428    0.41099405160424   -2.21644371684722
O           0.23084339864336   -2.19382341381852   -1.73904617513322
H           0.12594167190209   -1.42220541317566   -2.39638022563141
H           1.21493800088119   -2.03587918276866   -1.24132969617931
O           1.78291511310747    0.94434003690739   -0.32425108087863
H           1.89092516943694    1.09289038500996    0.61891397658940
H           0.81310413761156    0.99506709752520   -0.46945799705024
O           2.28774916448162   -1.65299635027494   -0.48903954738174
H           2.27252822792032   -0.66448867098545   -0.52136734182556
H           2.00051643620171   -1.87009767837733    0.43880380165408
N          -1.72460092707500    2.78333447533514    1.50669014880034
H          -1.94678570419976    3.53483941786596    2.14678931806015
H          -1.47900733163372    3.18001414327966    0.60886451695119
H          -0.91800811941439    2.27334387673110    1.85455008754364
