    26
        -50.47022471  Gyration_radius:  2.39152307714 Dipole_moment: 4.349
 S          -0.04210860381841    0.63289836197146    1.28077765748063
O          -1.01787574060817    0.73456795122348    0.18730076291916
O           1.00936581751045    1.62514228543501    1.14698180189361
O           0.52301615064012   -0.72089027797390    1.32711397691519
O          -0.79694231241774    0.89011301205532    2.59917559518924
H          -1.65041616928880    0.36988262541506    2.50526629884468
H           1.96109280741387   -0.69128749955433    0.50904383335951
O          -2.88265950852387   -0.44314144303857    1.88953936451067
H          -2.95881642713590    0.08867886409054    1.09041594376903
H          -2.50231457996691   -1.30390393377224    1.59200816671967
O          -0.83175548454604   -1.08643644539869   -1.69780949192786
H          -0.91955290822904   -0.42890637444527   -0.96685899200697
H          -1.49934889762684   -0.85153438236501   -2.34546150935632
O           0.32212153213483    2.29323140878893   -1.52720626077827
H          -0.28997281544983    1.80893173370524   -0.93902412282085
H           0.83350296216572    2.84363195141536   -0.92908543458319
O          -1.45593293508073   -2.42482287617061    0.80608782721943
H          -0.65374837885200   -1.95174864875980    1.10009562026308
H          -1.41959620362500   -2.38178213078023   -0.15698475217219
O           1.54008217722172    0.06712049203867   -2.37074802066613
H           0.76951108478818   -0.52840820421281   -2.27079924926997
H           1.15902400856286    0.97010558782052   -2.27751549146489
N           2.60813697896332   -0.05269388657048   -0.01723572436401
H           2.29814974110691   -0.05596607020012   -1.05940362958861
H           3.59055499951547   -0.26227713752556    0.12095613829611
H           2.30648270516957    0.85949505685151    0.40336969163219
