    26
        -50.46335339  Gyration_radius:  2.50841464002 Dipole_moment: 8.129
 S           0.74834017168056   -0.48607336403644   -0.45816935046427
O          -0.10179573149541   -0.64263991262403   -1.61853087771441
O           0.21536767452279   -1.15714952065300    0.72279739966035
O           0.84762217154116    1.03147603713756   -0.11317489053030
O           2.14088239411821   -0.87353830462623   -0.70619265504383
H           2.80292667843487   -0.20977942388992    0.33450222135377
H          -0.12176256214360    1.41827669481346   -0.02954819799817
O          -2.37901683947134   -0.43236087591442    0.91569012952406
H          -2.75293854260888   -0.85783727115867    0.11937413333551
H          -1.48540381922441   -0.80956946820830    0.99640350462279
O          -1.68038023085679    1.24197860717543   -2.62747817656572
H          -1.05427155483213    0.53730141059892   -2.35437901983299
H          -1.23959360439206    1.74493229738631   -3.31292606974654
O          -2.75406682830226   -1.38332974568954   -1.60694426603725
H          -3.03668521927912   -0.63866405728518   -2.14628552350973
H          -1.78430670150857   -1.38138955997224   -1.66002796465214
O          -1.50619109786542    1.85898494519813    0.01848709131203
H          -1.77356114445247    1.82089243163822   -0.91947309157861
H          -1.95899864199785    1.08490989083726    0.45743009229888
O           1.60780772585073   -0.97212811747007    2.89985992896937
H           0.96951480984952   -1.05276389869544    2.14258896023498
H           1.74422105310979   -1.86572079972281    3.21939774231911
N           3.11416812976771    0.38322715818782    1.23411352518898
H           2.64482638081903    1.28086356855967    1.11609104485523
H           4.11930105181992    0.48761260972121    1.32485725321791
H           2.67399428674774   -0.12751133130153    2.05153704687356
