    26
        -50.45088104  Gyration_radius:  2.63463352514 Dipole_moment: 7.372
 S           0.24000185248999   -0.57459690911534    0.79790592596064
O           1.14869162819358    0.32775033501188    1.43366700477641
O           0.43086197836068   -0.70700657888823   -0.62785825863296
O          -1.21881793261150   -0.15164159783966    1.07119715462700
O           0.32504400702181   -1.94028125289860    1.46502562261504
H          -0.35366981204884   -2.56881093235097    1.02857000436780
H          -1.34907307465460    0.81069103698922    0.78810641438339
O          -1.24600014597074   -3.55616283982072    0.30692143963798
H          -0.93402165146119   -4.44446773936756    0.49424228586147
H          -1.05889535711628   -3.37717560547263   -0.66530598571593
O          -1.42250255613564    2.24912633172221    0.23240184002103
H          -2.24778560243813    2.43342071424781   -0.22017619913003
H          -0.70077218464419    2.20477362808249   -0.48390068207504
O           0.45500958198768    1.87303559357170   -1.45574979805385
H           0.52760318830276    0.90893015118296   -1.35706871246174
H           1.25836570825310    2.23676859346751   -1.00860849963505
O           0.56744113597515    2.98049375073866    2.15384559787788
H           0.78143571324652    2.04003081467159    2.22483949678535
H          -0.26026095175135    3.01784498154372    1.66146615314941
O           2.43686260184704    2.54219005443832    0.18430463206409
H           2.48599701645358    1.65664681644802    0.56406480123564
H           1.94417122886006    3.05324419984343    0.85183214756693
N          -0.55632182591212   -2.90401389811067   -2.15514971615737
H          -1.27978797714866   -2.63589257741443   -2.81017434375791
H           0.14552946502017   -3.42567742485068   -2.66512319276048
H          -0.11910602403213   -2.04921962595914   -1.80927513256383
