    26
        -50.45543860  Gyration_radius:  2.47506715523 Dipole_moment: 1.149
 S          -0.12022164690311    1.22170663256461    1.10242783289327
O          -0.46166715775327    0.84569579783300    2.44232418657950
O          -1.14007999841908    0.88213460365012    0.13239453259506
O           1.20445837805561    0.55640673757317    0.68368991010690
O           0.20410830882760    2.69962399751281    1.03482164342471
H           0.68598205591508    2.88326837519176    0.13031589042525
H           1.15853941633712   -0.45648300715367    0.81672019660412
O          -1.50657442585031   -1.77393931832696   -0.05542899355551
H          -1.89673036423526   -1.98976494508329    0.80134185114898
H          -1.51661436733745   -0.79811935038271   -0.09961118309107
O          -1.24818129297498   -1.67625413312296    2.77197077271761
H          -1.01831123500617   -0.72606279006171    2.71243338779531
H          -1.66964268149481   -1.79172659326202    3.62475566704711
O          -0.15653060094835    1.28273455006247   -2.34362610618845
H           0.27691287045043    0.40319235059486   -2.45409239200963
H          -0.72321528820305    1.16602303190628   -1.56223912187960
O           0.90137681942696   -1.94023744521166    0.99450627068629
H           0.06396684194731   -2.03659106735747    0.47206119250396
H           0.61373210533008   -2.07058522267487    1.90738809914519
O           1.25934286322477    3.09169785585261   -1.20333278100330
H           0.95830636030900    3.93323003967548   -1.55446707564729
H           0.79728412879146    2.37506169868152   -1.74817323630856
N           0.78151219309777   -1.26228595241450   -2.22271376346017
H           1.48898496206036   -1.30471749211023   -1.49909887159198
H           1.11318677244304   -1.79339314252782   -3.01775934571929
H          -0.04992500713542   -1.72061523146812   -1.86660857318444
