    26
        -50.46997611  Gyration_radius:  2.47135520123 Dipole_moment: 4.046
 S           0.00832161691349   -1.35485890071617    0.30919843692829
O           1.11719756482301   -2.20489797763159   -0.04526256413346
O          -0.69288618749665   -0.83401052057809   -0.86502669510707
O           0.44990279189331   -0.21933818566935    1.15109816225818
O          -0.98060109917946   -2.19220188763483    1.14682894492297
H          -1.64916742641402   -1.55885244782861    1.52987261804154
H           1.73007258168805    0.33627764351826    0.42793633749435
O           0.32096479337714    1.43345065437441   -1.78063954422151
H          -0.15918974065463    2.03191808864609   -1.19349723609119
H          -0.09363897101753    0.55338450841744   -1.62226767746369
O          -0.76880112598117    2.08111050493407    0.72932782984174
H          -0.35084740409884    1.21009003038050    0.93563756812101
H          -1.00786520335206    2.45981415223444    1.57644364364617
O           3.27419255091729   -1.53170634212646   -1.33353180553730
H           3.10176689528463   -1.74756745688858   -2.25207761256941
H           2.53709734976745   -1.94683626520313   -0.82145932429600
O          -2.85026221105353    0.61546566728146   -0.32457244134215
H          -2.18690879667753   -0.00409496834741   -0.69378643461070
H          -2.32835668129549    1.39828565313567   -0.08350746727670
O          -2.83317112441602   -0.58872277461936    1.98687010718029
H          -3.62201159535650   -1.11785170332593    2.11895069927210
H          -2.97075379500744   -0.08511249124183    1.13550719642387
N           2.37136547022601    0.74175147219757   -0.31612830966819
H           2.88369240204577   -0.06606028234422   -0.76119419693120
H           3.00994255136607    1.42950089905869    0.06814581661071
H           1.68994479371128    1.16106290995473   -1.02286603148006
