    26
        -50.45966045  Gyration_radius:  2.45079007701 Dipole_moment: 5.804
 S           0.83170093052461   -0.89425663786257    0.83098362753717
O           0.65894306074229   -0.55507050934115    2.21470011663450
O           1.06085848790946    0.28741842468614   -0.01419724143102
O          -0.48190164527419   -1.56040236928079    0.28634100075106
O           1.84553518837698   -1.91885196605449    0.56906777507451
H           1.44982208381498   -2.46639770651982   -0.65921707864820
H          -1.26432060302510   -0.94453447836391    0.47431678417427
O          -2.39122059787643    0.11056246169597    0.52187944450254
H          -2.18685898495354    0.81568767745597    1.17031620610661
H          -2.20510321355961    0.54540869814909   -0.33141895743205
O           0.96900129830790   -0.31055739455471   -2.56165692013452
H           0.18075733061237    0.18734353055173   -2.79995062956658
H           1.17513083009906   -0.01498527423956   -1.64222084529783
O          -1.58978633101664    2.40386190353690    1.70321804553864
H          -0.61815698096929    2.33395849194363    1.87956055092875
H          -1.97664239990091    2.73637107091436    2.51377281639509
O           1.00300811597071    2.05662389801764    2.13267303528129
H           1.42820687969100    2.02192749755372    1.27003501421133
H           0.91930846014444    1.11321672388951    2.38405665550418
O          -0.96028348291904    1.62837273949313   -1.18593002451692
H          -0.20248605907802    1.21801879984494   -0.72245814741490
H          -1.17822022593759    2.40781232675133   -0.66660929020962
N           0.99356034322288   -2.76908236113568   -1.63931009031662
H           0.94155588626295   -1.86004054831444   -2.18681712073690
H           0.05518508128999   -3.09651407023886   -1.42352103064733
H           1.54240653782792   -3.47589091878865   -2.11761368622211
