    26
        -50.45612486  Gyration_radius:  2.43739973595 Dipole_moment: 2.656
 S          -0.55314941514511    0.36363714975978    1.13033177780660
O          -1.32320283144598   -0.65361941923286    0.44076955227122
O          -1.17927494672717    1.65333357882096    1.16649292036296
O           0.81927565151627    0.48407940577409    0.43246172117371
O          -0.19826790439469   -0.10833842789668    2.51650201554995
H          -0.02960371464583   -1.16554191445592    2.42423961605257
H           0.67081252750995    0.82857437623207   -0.53126504509966
O           0.11289518216899   -2.51038130493675    2.04501803861972
H          -0.64628875126759   -2.61319627315279    1.46084345765448
H           0.93532291831499   -2.50441748626118    1.43012442480407
O          -2.34620219486724    1.02361024401808   -1.40116326319318
H          -2.61295106150204    1.78307017961876   -0.87618388309619
H          -2.21268984182849    0.30048199270061   -0.76540344377921
O           0.24074184793534    1.41341203613780   -1.84220195510430
H           0.31894327964592    2.35431001935191   -1.59619454833896
H          -0.73575955749333    1.26132462537794   -1.88431814966858
O          -0.06273270950062    3.60932940211992   -0.32661128116079
H           0.47975643469643    4.18015293036503    0.21887715446222
H          -0.52960443155629    3.00818155563629    0.28373806606619
O           0.15544405612239   -1.62455105373079   -1.68212612824307
H          -0.48466771070142   -1.37517661224227   -0.99768745704469
H           0.29769286555379   -0.83833453790972   -2.21612017144605
N           2.06432737944483   -2.29250100411597    0.34779078472670
H           1.53418460215908   -2.20757111792724   -0.52171545973197
H           2.79574171536540   -2.97869412104926    0.21720292226851
H           2.48925660100983   -1.39117422277936    0.52659834417628
