    26
        -50.45765116  Gyration_radius:  2.48285622622 Dipole_moment: 3.128
 S          -0.48364032037788   -1.14468338040873    1.76689234746742
O          -0.50575362522449   -0.07118556926711    2.74294860021315
O           0.61082303324581   -0.99921149600877    0.81628601732408
O          -1.76120553333265   -1.32531269194683    1.10580836689854
O          -0.19845038612346   -2.48987580016519    2.54738673163212
H          -1.05740672093737   -2.65807992323938    2.91827306814395
H          -2.36707556149514   -0.04239448112820    0.28627809088864
O           0.20336344270309   -1.57291810564786   -1.72596239190381
H           0.24424132330937   -1.58205860291473   -0.74426547154866
H           1.13540690595641   -1.36896711663375   -1.99514180540320
O          -2.49706794745590    0.82596971197756   -0.16872786082749
H          -2.12788466883352    1.48694831612987    0.44516697964422
H          -1.55049614273497    0.77656153718953   -1.28352141620100
O          -0.70030495558535    0.73192805217574   -1.90763111340606
H          -0.41051246995831   -0.30546024271265   -1.94398422348202
H           0.04121361137457    1.13593583955320   -1.32552891236456
O          -0.91591493383584    2.19404567709865    1.59229534277127
H          -1.10535082757734    2.85862185743568    2.25621230181500
H          -0.75608926241644    1.34584289111771    2.09045844896178
O           1.02749588301939    1.41455605820755   -0.15794745573767
H           1.02411342342112    0.52371986718100    0.26505136791834
H           0.50788509926464    1.96762561918051    0.45003021799732
N           2.67606712557795   -0.55734689841451   -2.04889286948705
H           3.31644594704324   -1.11361528916556   -1.49655497696824
H           2.52695220593484    0.31473800002811   -1.55329487092394
H           3.12314534503771   -0.34538383962448   -2.93163454342685
