    26
        -50.46240671  Gyration_radius:  2.40653969595 Dipole_moment: 7.412
 S          -0.08868613547658   -0.75699599597846   -0.58001432289158
O          -0.24504903727813   -0.16674243330903   -1.90613666140640
O          -1.34155317517384   -1.21097726540302   -0.02086965897537
O           0.50104485378266    0.37168976314673    0.32519303518733
O           0.96003334550256   -1.77945936642443   -0.56190598088210
H           2.18010533616617   -1.02670662451831   -0.52348191963375
H          -0.23417166146129    1.05710679770103    0.59902563064318
O           0.01023957462689   -2.01498051657213    2.21716908460956
H          -0.45447218898045   -1.81900696441856    1.39058734208953
H           0.62313617843134   -2.71830602210088    1.99833619891321
O          -1.36735494613560    1.93622259799562    0.91776845192954
H          -1.82379293840834    1.36797122860841    1.57975881494731
H          -1.89968311200620    1.84794136099017    0.09466381770801
O           1.80719146066027    1.40664938018143   -2.11744335772973
H           1.01133320668430    0.81874921485702   -2.19701590791128
H           1.48021792349280    2.21937038434873   -1.72379542844092
O          -2.35875032870433   -0.13604267199558    2.27585995025260
H          -2.22477311272235   -0.62228454419907    1.44487497638616
H          -1.73423053577452   -0.53597869351284    2.88862637830965
O          -2.53041453915338    1.09903991479958   -1.33863252477515
H          -1.73823234626392    0.66483892974752   -1.70885484086316
H          -3.10185659334491    0.37933294954252   -1.05913987276025
N           2.99720020866393   -0.27981082601862   -0.49630463040511
H           2.64873407924557    0.48353339094552   -1.16119556621488
H           3.88699795357069   -0.67152003073166   -0.78837932891732
H           3.03678655005946    0.08636606234352    0.45130631083187
