    26
        -50.46680131  Gyration_radius:  2.60689158742 Dipole_moment: 4.777
 S          -1.02018248587344   -1.25788640710458    0.09305772928612
O          -0.69275971988738   -1.40614786711040   -1.31212617607259
O          -1.32067366450997    0.11441961354912    0.44890986850585
O           0.07452324630806   -1.79150982807414    0.93029627092206
O          -2.28927510750496   -2.10497335810020    0.40836331439553
H          -1.97432878062172   -3.02909472025649    0.35065929819581
H           1.22077664124953   -0.71475081935832    0.84351486075056
O          -0.76864622735045   -4.26264051066652    0.62058115165931
H          -0.83960605339673   -4.69720306347595    1.47363874251823
H          -0.21044137405112   -3.47086267846663    0.75635740622090
O           0.03875828101119    3.80261985180018   -0.00686683200399
H          -0.64425135948963    4.46102590029753    0.12662808073119
H          -0.32043403195060    3.16932613887874   -0.67779975825605
O           1.25895422101815    0.11316726418535   -2.00159260329293
H           1.67971338085846   -0.24288145749175   -2.78567146179272
H           0.49648820676459   -0.49927915226207   -1.79819767663801
O           0.25895549968077    1.85313225807183    1.78408331551756
H          -0.50054531078722    1.30818015744094    1.50417233258755
H           0.21949194143038    2.66579491717269    1.22392131270514
O          -0.92803229282087    1.88809899230035   -1.55819806414154
H          -1.23929770257711    1.25001945416091   -0.88887586157902
H          -0.18136063098837    1.45325637826726   -1.98889808406725
N           1.81978113923825    0.13946578783000    0.65704217686144
H           1.29024933335580    0.95191013518293    1.15900367273553
H           1.80875113093483    0.28493215519232   -0.37131845673173
H           2.76339173002948    0.02188082807240    1.00931546094881
