    26
        -50.45361453  Gyration_radius:  2.48615863483 Dipole_moment: 1.915
 S           1.09757335447888   -0.44771150242280   -0.08546698677503
O          -0.18300033442080   -0.56468000293569    0.56925238287096
O           1.73309787071937    0.82221573145112    0.08427334256449
O           0.93871282062873   -0.78082000492938   -1.58066515376296
O           2.02985136407647   -1.55625407366884    0.40081105446220
H           1.57841715182130   -2.42291381078920    0.12826331185984
H           0.04255839822592   -0.46328121571322   -1.94641315607744
O           0.67639784722466   -3.60434689177233   -0.30034133557090
H           0.46280748337036   -4.16659701244494    0.44830693239552
H          -0.18418739739190   -3.23349864256012   -0.61819462884599
O          -1.27875062081316    0.15065191304293   -2.38147084411556
H          -1.24596089660277    0.44474643997576   -3.29474468613290
H          -1.14051178514660    0.97771088829874   -1.81916575968645
O          -0.53197631142550    2.12781117225760   -0.92135504581239
H          -1.04389783343261    2.12623667307151   -0.07068097498684
H           0.37161003747290    1.90475866035046   -0.66057381661215
O          -1.60024741493322   -2.34228839893288   -0.80501435246043
H          -1.29599158315985   -1.66291750274597   -0.17525063875399
H          -1.83585496949407   -1.85564321755895   -1.60045780292385
O          -1.51159576360873    1.72579405689226    1.49314030282516
H          -1.28011288976784    0.79485466098029    1.37780613059595
H          -0.75506786663171    2.10956706663174    1.98578664545175
N           0.96320065189364    2.46057361819809    2.43547621122061
H           1.32913271142233    2.10872179150414    3.31136043684339
H           1.26846300897011    3.42144526834255    2.34007438168047
H           1.39533297616607    1.92586434510289    1.68524402011513
