    26
        -50.47297516  Gyration_radius:  2.50295476077 Dipole_moment: 3.055
 S          -0.43714626869568    0.84808699782737    0.55972592316877
O          -1.28520006485180    0.46974066835989   -0.58726297365259
O           0.81993133478179    1.41435350140333    0.09451547165762
O          -0.22889506401604   -0.29479300569872    1.43361079230307
O          -1.16134716246334    1.96689043113098    1.33598451577443
H          -2.02784285538961    1.59940703036587    1.66721683186123
H           0.73797565515818   -1.48566804726031    0.74882891184463
O           1.36586164221141   -1.96107090346116    0.15842520265879
H           0.83346944086402   -1.48060388227546   -1.22739158775140
H           2.19867487431432   -1.46384047833976    0.26700735999813
O          -2.69997366330356   -1.28567982570814    0.79974138130393
H          -1.95896612062887   -1.51925081529069    1.37152344031800
H          -2.29330472239065   -0.70976219692607    0.12188497697929
O           2.20356147251638    1.09162496192702   -2.18389435611083
H           3.01489815268732    0.80665532772629   -1.74958014931148
H           1.67951921351638    1.50480001664371   -1.47058127899542
O          -3.44891590216730    0.93841472923543    2.00525712927385
H          -4.13969459747079    1.34217079848723    1.47564471300703
H          -3.32411077403531    0.02125924769996    1.65228510416494
O           3.09103545443340    0.10861579889694    0.46592016255877
H           2.26264286980128    0.63902515652933    0.42464747076380
H           3.46157117919558    0.26687036798625    1.33510238717723
N           0.42880512396148   -0.87932641790072   -2.02084873281929
H           0.10510140587764   -1.43279044322373   -2.80639341342189
H           1.16292312209581   -0.17433967728996   -2.29806998247757
H          -0.36057373599304   -0.33078934088663   -1.57329929024893
