    26
        -50.46173756  Gyration_radius:  2.45784760156 Dipole_moment: 6.250
 S          -1.44677654097996    0.12527257120376   -0.31004376498564
O          -1.87997451952438    0.33112145675462    1.05018877138041
O          -1.37822080773031   -1.28914621252364   -0.67392762040760
O           0.01220250779149    0.69232180687405   -0.45246125230093
O          -2.18057943884978    0.89514179229513   -1.31431258148817
H          -1.27116360099340    0.78822805463533   -2.40516160476736
H           0.68530824043701    0.06480530792179   -0.01186782511156
O           2.20170358267566    0.89412953371221    2.45571781682262
H           2.72873995281561    1.64370625104964    2.17598282215830
H           1.28297728886112    1.23192588851493    2.54169403977900
O          -0.49179558876363   -2.08807857431890    1.68939180365560
H          -0.94713534008128   -1.43439246083973    2.22786088060220
H          -0.93380764828618   -2.02808543911922    0.82096661709714
O           0.70519386069154   -1.49828859310111   -2.20294901910747
H           1.41588800094425   -1.40011293352580   -1.55801229926616
H          -0.10397980877090   -1.64542739857981   -1.65495568417427
O           1.65226391889928   -0.93406756323818    0.60024769445267
H           1.01733251858285   -1.52395347072415    1.06919999079324
H           2.02548423689895   -0.35875360727871    1.30686477030425
O          -0.31661117417561    1.83608169775781    2.55281203633935
H          -0.79903806278521    1.89023315166310    3.37962934814876
H          -0.89680922262239    1.33571606156916    1.93763942815434
N          -0.46102110036169    0.66007145134456   -3.16097829127024
H          -0.84950662471490    0.51698506425301   -4.08835373338893
H           0.10458389076975   -0.19499158013012   -2.84144314000670
H           0.12474147918571    1.48955775383622   -3.13372920343560
