    26
        -50.44630641  Gyration_radius:  2.43110786489 Dipole_moment: 3.149
 S           0.15039769013943    1.11802614642510    1.13726310129853
O           0.63705778466113    2.43307339368639    1.41948515118300
O          -0.46689443909947    0.38498863706533    2.19497905356733
O           1.31113118692019    0.26947888450038    0.56092072320802
O          -0.87510007238519    1.19255001398885   -0.02044524794805
H          -0.39772099864153    1.40649748469207   -0.88013272710049
H           1.95423736279922    0.92339764066295    0.14242553341691
O          -0.65751319022770   -2.18172723739892   -0.61369238615162
H          -1.48025369785545   -1.74644483771426   -0.31189646953013
H          -0.16504849176626   -2.35170374998344    0.20908429881573
O           0.47399253046280    1.54385644336293   -2.16459127685613
H          -0.06643415824343    1.68148199932183   -2.94525899085822
H           0.76180625524374    0.56770639627088   -2.19621263626003
O           2.53545726024033    2.26166541207414   -0.45416162127054
H           2.02029556419777    2.33897750356964   -1.27029108618041
H           2.06235928822220    2.76835004343614    0.22711276771153
O           1.10809322916756   -0.93180197835926   -2.08522139777031
H           0.37592242587409   -1.41760541278813   -1.61195666772774
H           1.87682532431788   -1.04984043820714   -1.52255965571429
O           0.32976274778809   -2.23390802400223    1.95611781380299
H          -0.22768715476307   -2.70567685494187    2.57813247948343
H           0.15089325042642   -1.28903783770431    2.09076415370362
N          -2.72384937722251   -0.93242333626977    0.73160347213678
H          -2.07793833557613   -0.45543791243221    1.35462872107409
H          -3.43544377824037   -1.37837000901145    1.29766839060474
H          -3.17434820646350   -0.21607236024148    0.17623450339808
