    26
        -50.46870541  Gyration_radius:  2.48919025958 Dipole_moment: 3.878
 S          -0.54932939175384   -0.83104307555645   -0.69279748979817
O          -1.59228435731667   -0.07777725497786   -0.00011836330849
O           0.10503379955783   -1.77885047830190    0.20003832405673
O           0.42981907673669    0.07217250195749   -1.30413178687232
O          -1.19650266411508   -1.67539070118314   -1.81202041403077
H          -1.59822149041888   -1.05473429104016   -2.47884554456554
H           1.43895760041061    1.01457722201577   -0.32393635658179
O           0.37648196869831   -1.15477920878845    3.07933498332447
H           0.05359491720835   -0.25356854934084    2.89411421466328
H          -0.07720652678600   -1.71088391805035    2.43388987970456
O          -1.41669575752232    1.90470237723295   -1.79729011159515
H          -1.89264479354548    1.50314698643668   -1.05542732079641
H          -0.54339875050418    1.47306028963042   -1.74363768681558
O          -2.08839039153383    0.05103442845957   -3.54329227491772
H          -1.96811205552793    0.87650868672671   -3.00918983518821
H          -1.46929655850220    0.10702015631211   -4.27412115612857
O          -0.43730802283709    1.19153525256315    1.92859824477134
H          -0.90906551363096    0.69952306573169    1.20289526398793
H          -1.06417080953765    1.83621795317161    2.26153652911610
O           1.89459938486393    1.37753442883970    0.46800287699396
H           2.37364159612799   -0.01847941825008    1.01351497252789
H           1.17067203889453    1.60137601552558    1.07695573038885
N           2.32081051800676   -1.04733410335311    1.30434191659569
H           1.56472889386466   -1.46192954838837    0.67958264192205
H           1.86935258368454   -1.10604005338554    2.24946572880252
H           3.20493471649880   -1.53759875331781    1.24253702347071
