    26
        -50.46300537  Gyration_radius:  2.42056514547 Dipole_moment: 5.774
 S           0.84550806872119    0.32310964624998    1.15602740072066
O           0.03397587229017    0.50829344124016    2.32990085285619
O           0.32690089626397    1.06370684587112    0.00006292271253
O           0.81539606426099   -1.18995679060524    0.73990495446740
O           2.27030609665678    0.58580258649673    1.34837499258268
H           2.84579746243625   -0.13072842211677    0.27483030144822
H          -0.15342994438870   -1.49529502292133    0.63043458704854
O          -1.61137733455961   -1.80231231054707    0.32127627318131
H          -2.11365728568286   -1.22090158467046    0.92512432219969
H          -1.66671214516618   -1.37941479407043   -0.56341924492601
O          -1.30290059641869   -0.14312865951108   -1.76304686907542
H          -2.06547053650352    0.45195337572343   -1.74564735985257
H          -0.68819903877101    0.27781507389218   -1.12846276545637
O           1.58654214932625    0.61979936953308   -2.26802746820641
H           1.17143828988234    1.01991272289949   -1.46983601405578
H           0.85506659692277    0.20120409344826   -2.73546424973167
O          -2.51720824910178    0.13513283880030    1.98832050744922
H          -2.93783254852328    0.04478801529980    2.84459230719490
H          -1.56560498862089    0.33962174801362    2.16993377781963
O          -2.43347736712765    1.87772114042599   -0.23196141321455
H          -2.73783639547718    1.38190886704992    0.53996353690198
H          -1.48629971709845    1.99798944750939   -0.09193187160792
N           3.10965312172720   -0.74328982744588   -0.62046338383122
H           2.59673254378549   -0.27331329676430   -1.42680398769896
H           2.71088194461071   -1.66412074376548   -0.44801072412809
H           4.11180705055652   -0.78629775003146   -0.77567140479951
