    26
        -50.46183581  Gyration_radius:  2.71988821451 Dipole_moment: 6.004
 S          -0.06995420623195   -0.41401857291913   -0.42140969681886
O          -0.65911152975550    0.52917003316540    0.55019881420172
O          -1.06681458398731   -1.11876358238289   -1.18481620692806
O           0.80366461221717    0.46056641281387   -1.37020494173930
O           0.90752074696456   -1.27250284526129    0.24343186039624
O          -1.37326596737101   -0.78532540761434   -3.81549590440950
H          -0.73590746996523   -1.35338978613050   -4.25035569360962
H          -1.33450020140679   -1.01328051483821   -2.86386655676099
O           0.66318564492514   -2.12979290184932    2.73175710740718
H           0.65663603237258   -1.85238769227048    1.78791498235774
H           1.04259665124829   -3.01008374861870    2.74252408716336
O           1.65421052368022    0.01535292491444    3.92511785050249
H           1.32650190539618   -0.85744203097166    3.59429856165840
H           0.95719972502887    0.35664150920549    4.48861788911151
O          -2.70071133943578    1.25891055113269   -1.02130677980208
H          -3.01133021343282    0.39644207679954   -1.31123227814644
H          -2.05357246625741    1.06713693284477   -0.31765025762410
O          -0.82071247680057    1.68320966910938   -2.87684880061392
H          -1.04953346536634    0.94154006552822   -3.47225588480038
H          -1.58913025133784    1.75404155808679   -2.26588120406464
H           0.19860917884559    1.00447945007758   -2.00107512681797
N           1.68976910309050    0.90737252056494    1.43476135414422
H           0.64896567547167    1.01720527113155    1.18381896905662
H           1.87338701769035    0.02763250838347    0.90601221205913
H           2.26000721308214    1.68215323055804    1.11315742532931
H           1.78229014133223    0.70513236855629    2.47078819875166
