    26
        -50.46303527  Gyration_radius:  2.45444642845 Dipole_moment: 6.477
 S          -0.41654335439292    0.15275607695031   -0.99939815117892
O           0.14248730351737    1.34842786070131   -1.58850462059549
O          -1.85667192477395    0.21753076819859   -0.81228231543230
O           0.22707617713871   -0.01858463951319    0.42750628758300
O          -0.00013226245672   -1.07276455159466   -1.68826659915209
H           0.52845560349299   -2.00093999223175   -0.71701162719973
H          -0.16595516998402    0.67787683318155    1.06756794488591
O           2.92294916748151   -0.88716233627656    0.59023554246754
H           2.49555524740599   -0.25306502679343    1.17383377487105
H           2.91987518793400   -0.44376717084358   -0.29849274477041
O          -1.77782285806878    2.83293663646206   -0.25922707518752
H          -1.00047045267098    3.02139989383908   -0.79597476325395
H          -2.05070545697531    1.94787183017436   -0.56252939790722
O          -2.85214156220348   -0.24441796678450    1.60052450612152
H          -3.77799468729756    0.00303708726284    1.56640463999972
H          -2.52649192839590   -0.18043356696365    0.67659389810961
O          -0.91881849473617    1.63422525489544    1.96417008718601
H          -1.67237287676288    1.03838581764288    2.14183973667597
H          -1.24799346481252    2.27963569188925    1.29640901080994
O           2.52177043504201    0.24395701191381   -1.75996654053601
H           2.32680464946677   -0.40352700239599   -2.44130987222782
H           1.69995628580207    0.77799428077515   -1.69130875106638
N           1.00197220981878   -2.57814030595540    0.09110549218338
H           1.85256990046924   -1.96608634897971    0.36408469747509
H           1.27422783108946   -3.50656321405776   -0.21524915406860
H           0.35041450488684   -2.62058293150411    0.86924601436329
