    26
        -50.45055462  Gyration_radius:  2.53342334823 Dipole_moment: 4.773
 S           0.03984780729189   -1.30290661620056    0.89296284505816
O           0.36023959648010    0.02421252094306    1.39011429979173
O           1.16239915715167   -2.13815315903697    0.63504141178345
O          -0.83313484862980   -1.16500376359903   -0.34604433047265
O          -0.86650834733364   -2.00546555326424    1.92541293119512
H          -1.70014434105087   -1.47160777022979    2.01580863996536
H          -1.04354137221236   -0.13471172467879   -0.65076134982164
O          -2.94720097829535   -0.46724683253274    2.22487330428698
H          -3.28620566435475   -0.49713843273810    3.12211341326511
H          -2.61745230010535    0.43831542572201    2.07048014520948
O           1.25808457057304   -2.10580698265236   -2.07676047850749
H           1.37871435797623   -2.26926601210173   -1.12675837219452
H           0.30952342993212   -2.01372819958376   -2.19554438777285
O           1.21672129840186    1.80768422207115   -0.54153015716017
H           1.79731662749157    1.35333306118750   -1.21476064639866
H           1.23931543073045    1.24492304613267    0.24548136483746
O          -1.54016655933180    1.77903337039734    1.71326474385337
H          -1.22202584186754    2.60039569377087    2.09183715195828
H          -0.75867468797130    1.17497324799904    1.66014557655005
O          -1.23218607344967    1.18462158065148   -0.96768025773398
H          -0.27813772186669    1.53077887848479   -0.94103968668137
H          -1.65446831472584    1.56110212836754   -0.17800399756368
N           2.67415532040689    0.40009050114827   -2.27225268566217
H           2.71160637268360    0.73856989509371   -3.22555266451438
H           2.20615829599958   -0.50926184117167   -2.28594119347164
H           3.62576477609354    0.24226330579666   -1.96490564978634
