    26
        -50.44751032  Gyration_radius:  2.45145148641 Dipole_moment: 2.797
 S           0.85769161278035    1.04096495848467    1.07291300521450
O          -0.58288226774704    0.93956106919760    1.17425438163574
O           1.33682170335968    2.30274347510313    0.61939309812182
O           1.35535992676003   -0.08695968848721    0.12223473522730
O           1.50837922792200    0.64520028448864    2.38891255288922
H           1.32683732697030   -0.35980068978288    2.53262231065207
H           1.19087719020106    0.21798740554515   -0.81888070978775
O          -0.33195374596045   -1.63565964913844   -1.99338404743617
H          -1.13552912983398   -1.35342165540287   -1.54012413792439
H           0.08181101341989   -0.83687504671174   -2.33467275041656
O           1.14414995840572   -1.83519927208018    2.60661713067738
H           2.01062260628859   -2.24642534229546    2.57305559036032
H           0.64514350176620   -2.18659565612534    1.81101633545300
O           0.85012998733202    0.97151585173676   -2.17386527235280
H           1.61502571129038    1.52481383088932   -2.34500449000148
H           0.11473447358758    1.59793278927474   -1.88024870034384
O          -0.13927040251245   -2.76578140028278    0.53895698488792
H          -1.00396275849353   -2.32368736531615    0.54772278212862
H           0.21060370611213   -2.55152414503575   -0.34048289084228
O          -2.16268262903855   -0.92704597817365    0.15276429977746
H          -3.00328421257704   -0.86363366962169    0.60823681925367
H          -1.58732533558278   -0.23459674725009    0.54136673808155
N          -0.94622363470828    2.58893966732376   -1.15290395034740
H          -1.06120019042848    2.09530449595097   -0.27078934007065
H          -1.85998946255883    2.84721624916250   -1.50421920220597
H          -0.43388417677645    3.43502622861289   -0.93549127265922
