    26
        -50.46154477  Gyration_radius:  2.43338438417 Dipole_moment: 1.377
 S          -2.00348907706509   -0.28925250809190   -0.69472789247377
O          -1.28331709843134    0.96867822594763   -0.76681801893187
O          -2.38835921843510   -0.65759738618241    0.65145057099745
O          -1.27642001308561   -1.36366101919826   -1.36597317581928
O          -3.34208563286928   -0.07050277198368   -1.50431384436250
H          -3.88676528570116   -0.80253196171466   -1.23346765893493
H           0.22661524035856   -1.16405429429857   -1.52024504666573
O          -0.73129946289406   -2.69950471256593    1.06251126457884
H          -1.41326659211971   -1.99805593720851    1.03906765898801
H          -0.75524540364117   -3.09066613139130    0.18512713439645
O           1.35631718464557   -1.06582611426508    1.07387972057388
H           0.86872116904220   -0.26996484963355    1.38191482337879
H           0.72193289031543   -1.80757334208322    1.21851991922990
O           1.21717827115061   -0.93623663868154   -1.43119808723693
H           1.27774957968336    0.12112449937442   -1.66204789604092
H           1.39712819863173   -1.00995446925615   -0.39518085039993
O          -0.31941526073276    0.95173578077952    1.68549048705406
H          -1.02261282335778    0.52830457211429    2.18642905476134
H          -0.70663845984262    1.08349196076976    0.79447614896233
O           1.14362857374893    1.52143925387598   -1.74653600991314
H           1.60234409257200    1.84994934239627   -0.91944596720903
H           0.18903903168144    1.56905701479209   -1.54966747196840
N           2.21241150877972    2.12931187622619    0.61624721649866
H           2.62330425399870    3.03997125736197    0.77528784730335
H           2.88667137663620    1.42649081491772    0.89377313980804
H           1.40587293693002    2.03582752799062    1.22544695342884
