    26
        -50.46269062  Gyration_radius:  2.40611726043 Dipole_moment: 8.511
 S          -1.21968289558849    0.82595741261657    0.59274389419209
O          -0.66723820945930   -0.53050879529232    0.71551282923559
O          -1.71699678715003    1.35830917327601    1.82132409031462
O          -2.16548830392476    0.87143049975986   -0.52709139405277
O          -0.00620956858294    1.74805219973877    0.16176232922580
H           0.38409251339461    1.36792177977753   -0.65095328801018
H          -1.69081702815202    0.08600978906301   -1.63541632481008
O           1.94224277056735   -0.77676959167944    0.16157673274639
H           2.31108490131613   -0.07438308900280    0.75035770107539
H           1.02219921482656   -0.88271477572660    0.47097580304962
O          -1.37989705747971   -2.62602980085770   -0.69897725212375
H          -2.21120996625655   -2.96393047236074   -0.36249580956172
H          -1.08358830887422   -1.93909575016194   -0.05647059730349
O           2.35809680254418    1.32691624212826    1.73924752145249
H           1.78062748128392    1.01203207479935    2.46668610209761
H           1.81917587423067    1.97823399163888    1.27885727804308
O           1.22714355340444    0.52021172304336   -1.89530471688705
H           1.60946916567211   -0.07102447699411   -1.15113927446467
H           1.97378572176300    0.98135862888505   -2.28005005486449
O           0.32441552013119    0.39366832224403    3.23930727537153
H           0.20058767875803   -0.53226405457623    3.01802269078130
H          -0.44766292769619    0.85036850483206    2.85315984652972
N          -1.20917799040238   -0.57834181488802   -2.37139431155175
H          -1.66920481809464   -0.54246679702512   -3.27417675522380
H          -1.26240171654616   -1.53123149238926   -1.93371712019775
H          -0.22334559968921   -0.27170945083777   -2.43234719509376
