    26
        -50.46400431  Gyration_radius:  2.43684826072 Dipole_moment: 6.305
 S          -0.98081778697926    1.54810164428345    1.31272700261875
O          -0.31777829817891    2.77290452540533    0.92769100642928
O          -0.03859459552739    0.48319325125121    1.66504872918299
O          -1.97722606588911    1.10648572888964    0.36552436704363
O          -1.74411680178715    1.85430787254072    2.67493516431090
H          -2.29179805647139    2.58768519452055    2.41650855072080
H          -2.32699280285657   -0.37065294253967   -0.38703054021225
O          -0.60918530024748   -2.02535420596051    1.07994919645377
H          -0.49340053076446   -1.13607407229159    1.48387836719538
H           0.52546126371473   -2.01702885147596    0.18841988222342
O          -2.23785429283946   -1.24881458760355   -0.81250654006087
H          -1.35651579936657   -1.89810858390484    0.43419412436780
H          -1.63105016046688   -1.08929307112227   -1.54896091807046
O          -0.04279294626180   -0.47369450625263   -2.42774861912869
H          -0.06071444047629   -0.27372325911722   -3.36430701701397
H           0.13568348999374    0.39265012002610   -1.96776787193143
O           2.35425395795011    0.37804814312684    0.70569477542497
H           2.98284758954146    0.58714363927824    1.39765199495251
H           1.45228430453098    0.48816107372612    1.11691292771652
O           0.75048306063232    1.69267308148412   -1.20911833537788
H           0.24405395963154    2.18031069493068   -0.52567586002424
H           1.56546710231639    1.43123545721776   -0.76115477306887
N           1.35559374579915   -1.81798789474740   -0.53450389293048
H           1.90097401111890   -2.64764593324138   -0.73540361522165
H           1.93321337470112   -1.06910737585989   -0.10428562251040
H           0.90852198818526   -1.43541516256669   -1.39067249308652
