    26
        -50.45588355  Gyration_radius:  2.51203129866 Dipole_moment: 3.056
 S          -0.96041386830956    0.42030779886745   -1.46034436991732
O          -1.20448383150015    1.82791327925415   -1.33719912071555
O          -1.05441191792802   -0.30146558461752   -0.20597560926668
O           0.41243330686949    0.15889463722362   -2.07435231486241
O          -1.91643785035044   -0.20697860532419   -2.47212828069960
H          -1.61667723357040   -1.19561568499821   -2.46367659550442
H           1.22422419093517    0.40099023975433   -1.38884853139533
O           2.12279986579548    0.67152795551524   -0.37102250485508
H           1.72647952451877    1.44069820560035    0.08402914254965
H           1.95105090102644   -0.13108325412856    0.20428387887518
O           1.17398821922894   -1.37248672661932    0.92625563206297
H           0.29841248251395   -1.12373473954201    0.58468569616422
H           1.15415180915955   -1.13952595392547    1.87889460959255
O          -1.01692005706621    1.13592459668775    2.14578309867890
H          -0.50108573070126    1.88120770843554    1.80956934517571
H          -1.21773205715073    0.59808749771007    1.36275553236815
O           0.53265383972812    2.73817057097590    0.43150814954855
H           0.75132852671712    3.66121003358855    0.29017439496668
H          -0.15550537918065    2.50912185157986   -0.23183762005643
O           0.74172452332227   -0.43134638321107    3.41238858744734
H           0.07935727569270    0.20694525449658    3.05841962901007
H           0.29257972072899   -0.93428148294364    4.09246537774705
N          -0.86182046565969   -2.51576601344677   -2.15500623879802
H          -0.90802745268769   -2.58138806086859   -1.14538824398507
H           0.09769629817582   -2.31980703735231   -2.41292372967708
H          -1.14536464042069   -3.39752011336868   -2.56250990437433
