    26
        -50.46135644  Gyration_radius:  2.48842037873 Dipole_moment: 3.161
 S           0.54228264177112    0.30741121526055    0.81786709871351
O           0.57961899037180    1.30131197571121   -0.27179348100658
O           1.55250866847914   -0.72221212134243    0.60454719709664
O          -0.78565673427788   -0.28838430677693    0.90927185202055
O           0.87173046803862    1.02906076967792    2.12794965412125
H           0.44161120182145    1.94198023179753    2.01917405932229
H          -1.16663838118623   -1.10620251801936   -0.47349930703682
O           0.48742254943391    0.02584151590179   -2.39675816480863
H           0.52535616613308    0.68113382084340   -1.57478096369115
H           1.38304340128792   -0.47781141684196   -2.33404223991836
O          -0.30523179833530    3.17945124848911    1.48371479548680
H          -1.24573691824310    2.85793101464050    1.51794450331475
H          -0.01078075429555    3.01471408293951    0.57825841743339
O          -1.09354819253769   -1.58691552668776   -1.33425255124142
H          -0.25484046311628   -0.67397420808742   -2.08926348334750
H          -0.51979545921312   -2.35288080439898   -1.12462096105202
O           2.58923414328473   -1.26296218069099   -1.77728386296330
H           2.41065099448658   -2.20978156191689   -1.77229343570904
H           2.47086502256512   -0.97816808981721   -0.84554730877037
O           0.85452153388510   -3.11305531163109   -0.28936730270522
H           0.66148163559500   -3.75092052949349    0.39869874269081
H           1.11988827413176   -2.28463707635412    0.17086718591477
N          -2.61098850349350    1.83646213405790    1.42962784807350
H          -3.13688464350442    1.71688845132889    2.28608415070768
H          -2.08506769105019    0.97629335393081    1.26693593816766
H          -3.27504617205887    1.93942584752517    0.67256161920891
