    26
        -50.45467081  Gyration_radius:  2.45105331415 Dipole_moment: 2.777
 S          -0.62883092167236    1.21173633646593   -0.50375185714285
O          -0.19492197596592    1.77882271727766   -1.74126202451161
O           0.42654426927608    1.04575341194438    0.47905786094455
O          -1.27254814601609   -0.17637626288714   -0.75875694028007
O          -1.76506016731373    2.00013174637325    0.09853256446846
H          -1.81254819587867    1.68276855359240    1.11257288173000
H          -0.57789746027458   -0.81833158915401   -1.11570849735067
O          -1.64535910173770    1.12605710188183    2.41117080082964
H          -1.87234177036452    0.13460490668462    2.29731901293784
H          -0.68723425337595    1.15964609075504    2.50206848385586
O           0.55978997541446   -1.69731891091027   -1.70728910563177
H           1.15422733870869   -0.99149253076618   -2.12330112084580
H           0.25050900725326   -2.24344283447737   -2.43293906033235
O           1.84775020491729    0.28972620159916   -2.69806601804297
H           1.12505169770446    0.93707689000310   -2.62026595061942
H           2.49098397832274    0.56730682539854   -2.01482589357412
O           0.73105975844083   -1.60230211753829    1.16104426437065
H           0.91792508947675   -1.97584036123449    0.29345390102986
H           0.76902161777687   -0.64171883445566    1.03694757534046
O           2.95713038678848    1.32263902332391   -0.46966087155786
H           3.15001291328000    2.26113935125115   -0.49933983969016
H           2.09395588489647    1.23357198619057   -0.02716091026993
N          -2.01881767088814   -1.40271403209768    1.92995683673233
H          -2.50476137758834   -1.46203293756431    1.04410601911227
H          -2.44334658189498   -2.05140227132012    2.57931700722029
H          -1.05029450908798   -1.68800845021166    1.76678088268349
