    26
        -50.45091775  Gyration_radius:  2.49725477608 Dipole_moment: 2.738
 S           1.00855689893600   -0.85813928259677   -0.43493982956417
O           0.72932208062793    0.56409928619070   -0.45055036241057
O           0.79780500883335   -1.51272464007957   -1.68302601000652
O           0.11405744142964   -1.47930578493011    0.66888547022197
O           2.41718815529043   -1.12310836389732    0.06542267997013
H           2.51955614939499   -0.80296759516413    1.04316659984009
H          -0.79680585771844   -1.07172126914479    0.48779698148632
O           0.72348360193398    1.47987278357541    2.08142855562319
H          -0.08532685435063    1.07758040994824    2.45556805405689
H           0.68799430430437    1.32531549842813    1.12004255761126
O          -1.99861655498101   -0.22370202964644    0.01781882609190
H          -2.11848517300264   -0.61180580695512   -0.90600964353706
H          -1.60852706914151    0.64362000968037   -0.13537615442321
O          -1.81161537720244   -1.06481347735068   -2.40498944435865
H          -1.59856386619359   -0.19579740489038   -2.81015913920321
H          -0.94663838357098   -1.49644862950638   -2.31892911108209
O          -1.41359207682129   -0.06206569926898    2.80227652066384
H          -2.01548741724113   -0.11475749127537    2.05043423446725
H          -0.97514584130968   -0.91504554026427    2.86049124489120
O           2.62266389783747   -0.23293659560735    2.41267283476172
H           1.90430439108353    0.47277974808854    2.41541914115262
H           3.45898968846118    0.22625397268943    2.51722145180382
N          -0.62242679322361    1.32120821520768   -2.96358766478030
H          -0.92610146417961    2.28748874913877   -2.95953631474334
H          -0.03947001440298    1.19037743813190   -3.78129324656206
H          -0.02711887480471    1.17674351949489   -2.15024821196098
