    26
        -50.46947550  Gyration_radius:  2.39144969023 Dipole_moment: 4.886
 S          -1.02757392953954   -0.54469476711960   -0.01594474836180
O          -1.53203097576942   -0.39533372017232   -1.36967495882179
O          -1.93021847711606   -0.07953970509543    1.01860961238779
O           0.24836950145068    0.40470670575083    0.06072399629531
O          -0.49788161038048   -1.87541109863984    0.24503532502999
H           0.93656566437769   -1.94472338357910   -0.25384108449203
H          -0.07181677190879    1.34163107288452   -0.06000438067035
O           2.49531153850505   -0.23717483200418    1.56451880444261
H           2.39757742579768    0.68200171978366    1.30589637815701
H           1.66788239317171   -0.44011544267128    2.06023448126275
O          -3.08456642218147    1.68645066128056   -0.61789278651149
H          -2.97522346952123    1.13776703658629    0.17959923047818
H          -2.85476165533134    1.06961451750873   -1.32750947083643
O           0.79769847490462   -0.32728464724319   -2.63451987777533
H           0.91894939808728    0.61757038974538   -2.75044789414597
H          -0.11491863390435   -0.42808482119499   -2.27776431773157
O           0.08929440050613   -0.74873994398812    2.72250536577428
H          -0.01674396058206   -1.70250269273639    2.67775149595446
H          -0.66319767067756   -0.40154009718834    2.21143459744888
O          -0.73515823554889    2.79058206948253   -0.22648146528597
H          -1.66387664372942    2.52057194248432   -0.46376999647281
H          -0.80404833051407    3.23456054995745    0.62154163753364
N           1.91404971731413   -1.67842961971131   -0.59962020725884
H           1.71309697663238   -1.10137690527931   -1.45089815592346
H           2.48742340113654   -2.48772205039244   -0.81006049709817
H           2.30579789485116   -1.09278293839591    0.19057891647886
