    26
        -50.46843923  Gyration_radius:  2.39608193824 Dipole_moment: 6.682
 S          -0.12433835322593   -1.08947314792259    0.33704212272912
O           0.29943967290679   -1.78763871033537   -0.87260121397080
O          -1.36396663455390   -1.56926502227896    0.89823630891775
O          -0.36640578917081    0.40838718248184   -0.11755427668190
O           0.95382436612935   -0.98990407718098    1.31587260398007
H           1.75367007221008    0.25998764386214    1.04838663882165
H          -1.00840377154481    0.40654299393979   -0.88502412562099
O          -1.93312312779613    0.22778103512985   -2.16876589713086
H          -1.37039393383205    0.23114908737310   -2.94645883272288
H          -2.21488026558179   -0.71563504751085   -2.04023481406672
O           0.02716157107456    2.59574974220096    1.51391817471164
H          -0.55840415772329    2.69055339569991    0.75845541990436
H          -0.37650805218338    1.86704865674472    2.04205458100484
O          -2.21655939974320   -2.32631207065488   -1.58842303084840
H          -1.24616838791687   -2.38956644442820   -1.52453221591582
H          -2.49028319765866   -2.29837275304610   -0.66231064135844
O          -0.99574576460106    0.40427503993133    2.73392793780022
H          -1.31993924282678   -0.25473785174356    2.09463499582211
H          -0.25665626781614   -0.03349381033051    3.16447339021525
O           2.04061024649293   -0.01314649749134   -1.76680939464747
H           1.37609964901057   -0.68207746234245   -1.47979716124793
H           2.76635724752482   -0.51667211213079   -2.14021845328659
N           2.11331702691199    1.19771457417179    0.66593937710972
H           1.34537257096580    1.88533120154905    0.93119125890572
H           2.15043956334967    1.03236272252665   -0.35933330842660
H           3.01548432960631    1.45941172180362    1.04793056601716
