    26
        -50.46186107  Gyration_radius:  2.40648171485 Dipole_moment: 3.243
 S           0.34174213240213   -1.03295112982113    1.42660027967424
O           1.66990751009213   -0.73505061869648    0.91187046411686
O          -0.54194591359223   -1.53669357517285    0.39171762516298
O          -0.21514068595611    0.09818604914213    2.14820282915709
O           0.49349925988852   -2.19698116964681    2.48128155197494
H           0.79128397725412   -1.71817434360893    3.24658788180132
H          -1.52823005443080    0.89147322899766    1.47146560186066
O          -0.58203320593432    1.90943831606873   -0.95279697756654
H          -0.47668993339693    0.97838570760026   -1.47682875385659
H           0.26377590916146    1.99900441057575   -0.39067801679709
O           1.38536955619973    1.85039766479464    0.68703078010479
H           1.60518872909632    0.89068967870003    0.74605721071766
H           0.96828434894057    2.04928563557345    1.53104115419868
O          -0.26181538096305   -0.34564346145573   -1.95290404125344
H          -0.39438415968331   -0.89651873733868   -1.15030747155802
H           0.72084911002638   -0.39867688765407   -2.12038627280052
O          -3.11181597010793   -0.98649044114098   -0.12585624075329
H          -2.25356463677414   -1.36958123892332    0.13805272939004
H          -3.15485504531982   -1.06713280175092   -1.08106931056679
O          -2.17924084902387    1.30642551064142    0.86099299086271
H          -2.72928603657098    0.55908968344331    0.53344766625405
H          -1.34725866568107    1.73766508765110   -0.22610763591910
N           2.38316752065964   -0.47243321592551   -1.88333198878685
H           2.90940225041670    0.38616591031453   -1.98692707085417
H           2.90156375944723   -1.21200815536598   -2.33952773536344
H           2.34222649393370   -0.68787111701467   -0.88762723916748
