    26
        -50.47297968  Gyration_radius:  2.5041437998 Dipole_moment: 2.745
 S           0.17759241875111    0.92657133813092   -0.56269231591089
O           1.22872586818661    0.94323424032315    0.44311565285005
O          -1.14593694551220    0.81960481046359    0.05003230861234
O           0.39122769280958   -0.16203578283852   -1.52354564750999
O           0.26628552175651    2.27389829270091   -1.30793808365358
H          -0.48540401729643    2.32459308456352   -1.96310377538169
H          -1.26285251587701   -0.50139923465282    1.11690769489041
O          -2.22951382728684   -0.17315533130001   -2.15314668647263
H          -2.13600816128548    0.12162336932059   -1.22774069407676
H          -1.33971512260418   -0.48792644279865   -2.36627142155495
O          -1.02804221964328   -1.26151270682590    1.69223596428517
H           0.03347659990316   -1.97005877281038    0.77810088067906
H          -0.48923738999100   -0.85865708694783    2.39932952521191
O           0.77684687019055    0.31043766159888    2.96918556602619
H           0.92284897467443    0.64863568922523    2.05600215558072
H           0.47859198083104    1.06067897318404    3.48474341659971
O           2.88075040381233   -0.97993862002998    1.33455021612390
H           2.56142956115490   -0.16565128578103    0.90027713342239
H           2.64581636134921   -0.86467227706377    2.26174024767794
O          -1.80284238898471    2.32418862523244   -2.87346659044341
H          -2.48547722692114    2.86136632811636   -2.46567918647664
H          -2.09253721378910    1.38144798380928   -2.77662431042450
N           0.83981605961259   -2.14809079782022    0.09464474551680
H           1.73929256081689   -1.89619569060893    0.58396250949144
H           0.70848524586255   -1.43080650280669   -0.67976006426443
H           0.84638089947160   -3.09617983439428   -0.26485924078794
