    26
        -50.46836577  Gyration_radius:  2.5499322303 Dipole_moment: 5.025
 S          -0.38484495772810    0.38631090273313   -0.20533178882467
O           0.24943320156047    0.41036650228447    1.13008786818493
O          -0.18558711945222   -1.06758563166416   -0.74492342486652
O          -1.79804197974147    0.66311351749037   -0.13104726226598
O           0.35020469162326    1.22878469260753   -1.12944474100211
O          -3.66012531527686   -1.11960434820152   -0.76977808351382
H          -3.78520786209056   -1.09522557376421   -1.71920183749044
H          -3.06341375085361   -0.37176907878110   -0.55347242052799
O           2.27644117450942   -0.68294771427683   -1.76794576059071
H           2.06592710962322    0.09044157219411   -2.30202229807455
H           1.40505453834022   -1.02273054816987   -1.49333466433058
O          -1.86370075152189   -0.57408160193141    2.41855175565046
H          -1.03784108598311   -0.16734939534453    2.09523954841482
H          -2.56514809514832   -0.03859010869446    2.03611769780741
O           2.22744053530554    2.94579152934627   -0.46835982270737
H           1.82675637793605    3.69296075680194   -0.02179311266179
H           1.47958940240168    2.41216302965483   -0.82760560949977
O          -1.77673469055338   -2.48753717723051    0.57279531788031
H          -0.80605431634148   -1.70597619012535   -0.20747471504398
H          -1.82882297451893   -1.97107060251258    1.41174934943574
H          -2.60110435504953   -2.26378004653579    0.09430099367665
N           2.73532513079261    0.53882111604664    0.53930004719850
H           2.75460177119575   -0.02482075787119   -0.35551614186275
H           2.82697560288021    1.54650259440865    0.27740489676588
H           1.72626389325109    0.44049189101919    0.91098331345964
H           3.43261382482657    0.23732068052359    1.21072088481869
