    26
        -50.46594262  Gyration_radius:  2.44215186361 Dipole_moment: 4.196
 S           0.17552938458387    0.44986008930611   -1.44809024828937
O          -1.21399696301284    0.50642707379577   -0.98512396366966
O           0.94300071379738   -0.43820002311228   -0.38889693241260
O           0.30201205966119   -0.32526261650711   -2.67668247249514
O           0.79854505952484    1.74666552229825   -1.48407814501008
O          -1.84031197622180   -1.90292637901903   -0.17133254542325
H          -1.79834611909311   -0.98478263227383   -0.52752986027701
H          -1.57479823675029   -1.80159422164151    0.76848590760374
O           2.20448014996739    2.97903049361052    0.38011946925044
H           1.65980332149733    2.64196195225637   -0.36518150458783
H           3.09328495396479    3.07027117978604    0.03406441737297
O          -0.97830216343615   -1.08678035482553    2.24867517506850
H          -1.41724518956760   -0.22658888248230    2.19711618422590
H          -0.03851445893767   -0.88852773439013    2.30392283068918
O          -1.47065482620984    1.56522985518303    1.37441575861278
H          -1.82365911419032    2.45293919877405    1.30217989839274
H          -1.43163531303420    1.20980615567800    0.44959998492373
O           1.13055611928940    0.96627096004592    1.75122764191287
H           0.21642817020320    1.31309907168532    1.79465417462128
H           1.05528868455825    0.10073627364084    0.45556847983082
H           1.66647414964560    1.72515580754608    1.43590280311018
N           0.08065669295765   -2.65798235672949   -1.70067104868651
H           0.19773154767631   -1.69618959402329   -2.21482149968753
H           0.93077540466101   -2.83190686534537   -1.17285531331644
H          -0.75085829578894   -2.47424028515768   -1.01073460037703
H          -0.11624375574500   -3.41247167809461   -2.34993458138023
