    26
        -50.46283724  Gyration_radius:  2.6046604587 Dipole_moment: 5.579
 S          -0.34438414011196    1.13543237763479    0.65435929769895
O           0.65100333606201    1.76049476602160   -0.21234624664110
O           0.26734344917807    0.53925493777651    1.82753371141068
O          -1.08839417334378    0.10501894188952   -0.09497933894400
O          -1.35065455423476    2.21819977113753    1.10301263437936
H          -1.51730993378888    2.76016689081386    0.27744103705964
H           0.02103724735223   -0.98924137717835   -0.13479005815891
O           0.47702119333988   -3.66049141286103    1.27731052655966
H          -0.25912993808008   -4.20823857034737    0.99957265532113
H           0.12147564739127   -3.06575295154605    1.97789202244089
O          -1.29319952550836    3.37913980902623   -1.20610667326003
H          -1.49770361168295    2.66445335706672   -1.84634462381210
H          -0.33599166554150    3.32363756331561   -1.08815633160397
O           1.72473847561657    0.21284471291333   -2.02702328457782
H           1.32821415447198    0.85018137976023   -1.38142221245879
H           2.49811107806157    0.65051046861553   -2.38568894322124
O          -0.50541283612217   -1.76696908003399    2.88323422386756
H          -0.30995820425480   -0.88316767839455    2.49925082999105
H          -0.38552384612543   -1.66930568263050    3.82910791654269
O          -1.27013055249897    1.04828006653058   -2.57920987638007
H          -0.39000126067490    0.81656864137177   -2.89014970057966
H          -1.35462451467346    0.61242123391125   -1.70875808174415
N           0.99806374315484   -1.40024519577476    0.00221822500146
H           1.35510079035041   -0.83362962570124    0.78054258620864
H           1.52760253906932   -1.19368032212586   -0.85981362531659
H           0.93270710259733   -2.40588300115061    0.30331332019537
