    26
        -50.45063615  Gyration_radius:  2.58403777329 Dipole_moment: 3.826
 S          -0.52110127516771    0.12850157837277    1.09406319977340
O          -0.91279129621687    1.43524523855061    0.67322597599280
O           0.69150945034033   -0.36872499935764    0.47440162626169
O          -1.64904151178722   -0.87928062622410    0.83314993130341
O          -0.34609937642824    0.11043810586040    2.61182719407115
H          -0.20101481954710   -0.84609829479315    2.93971969632031
H          -2.17721345893126   -0.51778758046886    0.00427296858576
O          -2.60348531218593    0.18372580419957   -1.20435881895371
H          -2.50993583304855    1.10459409489850   -0.93579962758297
H          -1.79099823283984   -0.01907558584226   -1.75235644188318
O           0.37547298967237   -3.00445145202066    0.76820550467972
H          -0.47343145774509   -3.15382808535146    0.34461218097368
H           0.63511971083980   -2.09361792430142    0.53046659178836
O           0.11317635633567   -2.29871026920769    3.28320667736711
H           0.97784603397840   -2.37525690683407    3.69355669227054
H           0.18627584064662   -2.72175454478105    2.38730353838690
O          -0.22755739148650   -0.28296425640176   -2.14105393420628
H           0.25988480601159   -0.33353545507917   -1.30670531034635
H           0.11291753556062    0.51707016288228   -2.60131000033492
O           0.87839008688626    1.97869125446908   -3.07873893046343
H           1.15439851114461    2.25053060927952   -2.16874441088026
H           1.68195555492733    1.87103315742393   -3.58974757544913
N           1.58028297201635    2.35923890162126   -0.49540248187904
H           0.65137025991031    2.27818400882747   -0.08778140720662
H           2.03604079397039    3.15483665659786   -0.06541643355356
H           2.07802905317852    1.52299640764615   -0.21059639504576
