    26
        -50.46241469  Gyration_radius:  2.40585033968 Dipole_moment: 3.784
 S           1.40709124365200   -0.68174352300740    0.72046127355343
O           2.11880821530680   -1.45653474294734   -0.25722319965686
O           0.05275642597194   -1.17215439172365    0.95310096352933
O           1.35392615633034    0.75183455074775    0.35777102172056
O           2.17630663842014   -0.76224910882662    2.07406730280397
H           1.72727110662875   -0.09431359078438    2.62303467755439
H           0.85801483416581    1.11562489996560   -1.03662057007372
O          -1.95148970537790    0.76010348743086   -1.42538091361606
H          -1.94076458144689   -0.21200343233516   -1.48753427609374
H          -1.99345214702286    0.95082718802685   -0.43640373821963
O           0.93943776585195    1.49527210241099    2.81070553832528
H           1.02274683621808    1.43316441413762    1.83435756435882
H           1.56240188745777    2.16667484773772    3.09703546797707
O           1.00406012039402   -1.18833577735082   -2.62803691237463
H           0.16298805046028   -1.62119936438703   -2.39915863236636
H           1.59327230754281   -1.38026898453903   -1.86386043630015
O           0.43672795818603    1.16913251919969   -1.96312573250022
H          -0.63543127186975    1.08461042252472   -1.78642397772575
H           0.71021563775307    0.25729633020944   -2.39846839569892
O          -1.23001736183889   -1.86986822130695   -1.20413469805744
H          -1.65758246073379   -2.71384193056369   -1.05290552983691
H          -0.74445702464531   -1.65526126102936   -0.36635448147972
N          -1.81364209723496    0.95696451599945    1.19259066993750
H          -1.37062064553072    1.75961065180642    1.62175741295775
H          -1.15836290785954    0.17714434307168    1.27481946683267
H          -2.63020497077729    0.72951406554091    1.74593012444496
