    26
        -50.44714412  Gyration_radius:  2.53294195357 Dipole_moment: 3.551
 S           0.20049012762317   -0.56326177758085    1.04302956913517
O           0.93930129260925   -1.02893715059640   -0.11552918302818
O          -1.20080023131113   -0.83826290781501    1.00649628718134
O           0.45154100399633    0.93958088236834    1.18501327894375
O           0.80072403024495   -1.15639172376908    2.30939803809801
H           1.79238352225529   -0.93437835704142    2.34833078090724
H          -0.08462376330157    1.47698705501792    0.42180897786455
O          -0.80757603595438    2.03398953226328   -0.63895191785299
H          -0.58179619522458    1.46765232770619   -1.40972602330124
H          -1.73964500295373    1.80713305289432   -0.40463599602045
O           3.03114117423300    0.61229125928812   -0.06851998113193
H           2.61024270547687    1.45914491555935    0.10192550333361
H           2.30769479748680   -0.01972698122171   -0.25030956310539
O           3.28932416201884   -0.61944800706726    2.24604100378465
H           3.36817230146537   -0.08967656627422    1.41205345244712
H           3.79443622815847   -1.42459271895305    2.11021393646987
O          -0.00342844648712    0.12817643742992   -2.32603617525399
H           0.66741900588061    0.12154829621451   -3.01124083001581
H           0.31886768261076   -0.45014524334213   -1.60707409482329
O          -3.05180777506420    0.97476753731638    0.28091778498861
H          -3.49479895013015    1.28948810686254    1.07054907664019
H          -2.52412928791333    0.19766951255388    0.54869699746967
N          -2.61939946131989   -1.57872824715562   -1.69801191071495
H          -2.18746736868372   -1.80636087622269   -0.80906212392542
H          -3.35584715721920   -0.91057717629481   -1.50120198555152
H          -1.92041834850425   -1.08794116217863   -2.24417493256910
