    26
        -50.46438279  Gyration_radius:  2.6308466898 Dipole_moment: 4.455
 S           0.01703693739413   -0.46532386134812   -0.43869063791306
O           0.96323389203023   -0.58437457809218   -1.53109719427161
O          -0.62606145569946   -1.85294825417364   -0.19190618176577
O           0.68893318291968   -0.05749275868589    0.80716010227734
O          -1.05408489049804    0.47035068316686   -0.77347169163666
O          -3.30865719781349   -0.74269254336530   -0.08286938757253
H          -3.04307093788637   -1.63050762012588   -0.33714532880161
H          -2.57122911435194   -0.16953333768787   -0.37910703414901
O           3.54389731793041   -0.16736807643854   -1.41586743127929
H           3.90478655396803   -0.29071793302339   -2.29501369771553
H           2.61091923772593   -0.48991791597203   -1.45649833091822
O          -3.07101256277031   -0.59018593109578    2.57531559784659
H          -3.81783440140621   -1.05235889826103    2.95888806509551
H          -3.24227076384480   -0.54584791996166    1.60539217408558
O           0.43583441427722    2.23599176942579   -1.98872246408124
H          -0.25761645437660    1.69127738844714   -1.54337533614088
H           0.68838454677335    1.70894262939742   -2.75142474004981
O          -0.68921322686634   -1.76979320623276    2.34135599189422
H          -1.55290892756706   -1.34484996325288    2.55624828191787
H          -0.68700317513946   -1.95509148483687    0.81833800072327
H          -0.05364032548732   -1.04535518606806    2.23944981289794
N           2.25128167288926    1.76533238742029   -0.12861721531226
H           1.60154595102943    2.13699047617195   -0.88101777296792
H           1.65016529987187    1.05469116315888    0.40674416139442
H           2.99857122083681    1.19799682687265   -0.58785240390384
H           2.62001319604271    2.49278614457909    0.47378464035542
