    26
        -50.46652629  Gyration_radius:  2.47649611708 Dipole_moment: 5.845
 S          -1.07087432074146    0.26574790677406    0.09953739741426
O          -0.78063789188559   -0.46620082813359   -1.12512206558943
O          -0.42607580155910    1.58658963954043    0.07355839174989
O          -0.68375219904782   -0.48226168889666    1.28894311012361
O          -2.58343556665987    0.56658037625533    0.17105745524472
H          -3.06316061913409   -0.30503657198550    0.24623912836215
H           1.02772354893242   -0.68868210123806    1.20147389683477
O           1.78248591691602   -0.71177825743545   -1.64583598154973
H           1.82948594941728    0.74758236818045   -1.67578217606740
H           0.80122596381864   -0.78892262497519   -1.61821392615930
O          -1.30319139371063   -2.80241051129575    0.16659148751521
H          -1.08987324340569   -2.43025149655499   -0.69859452666394
H          -0.95779055977595   -2.13414661424328    0.78856188972570
O          -3.68922260989537   -1.75506099774875    0.48864135048373
H          -3.91945257030029   -1.86570938120180    1.41361473831075
H          -2.89158118435464   -2.32390168582746    0.33044601907809
O           1.97552851881709   -0.61450386188567    0.97877264561844
H           2.21251218255028    0.29617211783577    1.21162896762297
H           2.04825369102605   -0.88037423039178   -0.70819619889415
O           1.84322647855956    2.14569729527791    1.35248274907820
H           1.77350660420974    2.43348714049391    2.26362891675849
H           0.92530725121925    1.98868421724079    1.04334855516259
N           1.63426111033342    1.82675676400937   -1.49104724009619
H           0.69192263673227    1.81406652143087   -0.99180143124577
H           1.60513491864203    2.37825888274113   -2.34112504568813
H           2.30847317934608    2.19961763196280   -0.82280807708400
