    26
        -50.44539891  Gyration_radius:  2.61917767992 Dipole_moment: 2.556
 S          -1.54335102434108    0.21084681299940   -0.63695954722689
O          -2.09335603334025    1.00835755921865    0.41975622703960
O          -1.00430921465815   -1.05325051985538   -0.23492401578773
O          -0.49215118924103    1.02864368187417   -1.39896388477526
O          -2.62093353923966   -0.03885638956215   -1.72584071958946
H          -2.82742989801455    0.85715113733697   -2.07444681798831
H           0.50721247672893    1.00710415696331   -0.92724208050736
O           1.52660039182256   -0.11002868752450    2.07786902730240
H           1.94183592330497    0.39732539635503    2.77668388890077
H           0.55108771054302   -0.19650777491085    2.32499782472573
O           2.79987927070996   -1.17374458519683   -1.48159860139595
H           3.71535104393141   -1.40935342486955   -1.32447797013802
H           2.25554741460326   -1.75697171874877   -0.89339426272045
O           1.31525508255721   -2.34288184090447    0.36422977466836
H           1.52846860545759   -1.76734961145836    1.11170140464295
H           0.42494968457864   -2.06650002038632    0.08973150701674
O           1.73066420949155    0.95295827825989   -0.36365146215271
H           2.19234728020288    0.23876751739876   -0.88050250916926
H           1.63410719836693    0.59402534369121    0.55257424962222
O          -2.46309391365595    2.42976841194535   -2.60468432228567
H          -1.60828264259680    2.34275694766484   -2.15608838112995
H          -2.27913543173604    2.48354796711678   -3.54609669044057
N          -1.02095564633871   -0.37073176856656    2.64883367463130
H          -1.45904562032104    0.22570249131725    1.94567931004191
H          -1.45127599459601   -0.16922152627632    3.54329145983779
H          -1.25998614420178   -1.32155786393120    2.39352291688362
