    26
        -50.45748039  Gyration_radius:  2.49144221478 Dipole_moment: 4.363
 S          -0.62651763440268    0.40330884660547    0.74740755086798
O           0.05603946290936    1.51620884399280    0.10989797043851
O           0.31822990568810   -0.63061672992446    1.17130779289108
O          -1.63653499196459   -0.18276389744317   -0.14819660092502
O          -1.33743383229110    0.96762807238133    1.98740883246110
H          -1.80970674482861    0.21696714859321    2.45501730772588
H          -1.08884409798422   -0.41597526557009   -1.46182786797532
O          -1.47556064604522   -2.58307047383279    1.23804279763539
H          -0.67008035411131   -2.02808547997769    1.23813092404778
H          -1.98777876161049   -2.26229516114475    0.48820021835461
O          -0.48455535013808   -0.49241411499294   -2.31981887330283
H           0.45825173143444   -0.81335112616462   -1.89768764334973
H          -0.34969703149193    0.48090060622014   -2.58519383672140
O           1.59686859591226   -1.05707380762803   -1.09086648915145
H           2.18893707009109   -0.26346629691954   -1.09587931593526
H           1.21368549348181   -1.05428218584362   -0.18346107594513
O          -2.39412963537549   -1.06434753497170    3.17599093396156
H          -1.89171584943292   -1.26262187706284    3.96919024927445
H          -2.17141993969271   -1.77304777855126    2.51836718813663
O          -0.04690617955003    2.01818412995243   -2.45431366803116
H          -0.09602127663368    2.00354786781799   -1.46792907538684
H           0.84026219009908    2.30606930818794   -2.67830472081863
N           2.81906736040860    1.27594387208727   -0.60145317535740
H           3.21005670228023    2.07242300368871   -1.08954668587817
H           3.44007847552419    1.06506380462680    0.17030795999746
H           1.92542532769824    1.55716622586856   -0.19479067701862
