    26
        -50.45158948  Gyration_radius:  2.54378904689 Dipole_moment: 3.864
 S           0.11690084273343    0.95945896375803    0.42507405854233
O          -0.55513293290229    2.12669092067947   -0.06447654615652
O           1.52822533371441    0.91560033652583    0.12290305273269
O          -0.55378622336254   -0.30465648757784   -0.12911598429860
O          -0.04464101518683    0.81457902811775    1.93543255108531
H          -0.88419717410961    0.26508925896763    2.17023066043378
H          -0.62496243593410   -0.24667535923018   -1.19297252986541
O          -0.70291436122231   -2.66742160120168    1.42229359701902
H          -0.92045650162945   -2.46864325689720    0.50741819195727
H           0.22653975160395   -2.33947076365082    1.53725707941655
O          -0.62821548584403   -0.03956295655336   -2.59422550560927
H          -1.22198901466025    0.74653448778073   -2.68070964944580
H           0.27616830903848    0.30780499161955   -2.76061481488749
O          -1.83241888203753    2.30632582509433   -2.40207364297608
H          -1.38838474300576    3.01316935250534   -2.87515736029613
H          -1.49508834814287    2.34739880254120   -1.48508761269126
O          -1.95266607748857   -0.69501272006795    2.56789781339477
H          -1.92953081895514   -0.83759390657596    3.51692443461230
H          -1.57380019945367   -1.52337753278210    2.14483027235354
O           1.78744569295463    1.09223951547767   -2.52007784537005
H           1.77627699563812    1.14454622886843   -1.54258374831653
H           2.63135859108757    0.70547233286786   -2.76058417392437
N           1.75596900136785   -1.55464381329011    1.64375212042709
H           1.93338820276961   -1.25806735801882    2.59574156116953
H           1.72070155254155   -0.71107154112594    1.07658882560310
H           2.55520993048028   -2.09871273784012    1.34133520508826
