    26
        -50.44440615  Gyration_radius:  2.59403399993 Dipole_moment: 4.170
 S          -0.74621125828491    0.94960946883484    0.61326196945220
O           0.48143074657375    0.38332912172689    1.09378809509586
O          -1.43846409157361    0.18478211397263   -0.37537841422984
O          -0.47962711073450    2.37031122827798    0.07563418764036
O          -1.69452478584001    1.21204474930770    1.80629760966003
H          -1.23506007472491    1.88898961090409    2.36060603504398
H          -0.34628590307591    2.25693567770816   -0.97962471614658
O          -0.16394671961287    1.77318753532137   -2.29923755621401
H           0.65774822500870    1.21612169220378   -2.10620599752854
H          -0.88945383218129    1.14220170808368   -2.37159263469621
O          -1.02082479493051   -2.54470063048736   -0.74864435048497
H          -1.34049575217443   -1.63439696438896   -0.67509472859802
H          -0.57851315495352   -2.72430676260634    0.10974650696216
O           1.69709283098157    0.25561042713510   -1.39543683130441
H           1.59514391818146   -0.66735947782664   -1.72809009791768
H           1.48062601210942    0.22402587396296   -0.45308999682742
O          -0.27261481804116    3.22056686626612    2.66840512059069
H          -0.74759072795395    4.04572245978006    2.80035047581765
H           0.07679805294452    3.23436814824311    1.76725102162996
O           1.13668127477108   -2.21160259879753   -2.23662187884435
H           0.90418785735471   -2.37935457842495   -3.15046367009797
H           0.32625801447109   -2.41592398326151   -1.70120701151153
N           0.46716808857186   -2.53562494638082    1.54636830727248
H           1.38658671264850   -2.92484750538461    1.37704729676954
H           0.18886905559499   -2.79690590298796    2.48364033078526
H           0.55502221485912   -1.52278335117594    1.51829090766912
