    26
        -50.46652643  Gyration_radius:  2.47653824909 Dipole_moment: 5.850
 S           0.02079598256298   -0.39946827857590    1.03197143281972
O           0.66304000420066    0.91291463357660    1.19432927340815
O           0.83101098677340   -1.27936976128164    0.19955986316053
O          -1.32979965239190   -0.24321223902945    0.51069516835089
O          -0.04489257189207   -0.98528181464258    2.45888742634488
H          -0.42211733470969   -1.90664855045455    2.39277149267532
H          -1.64222696894687    0.55133221681152   -0.94781756257895
O          -0.91943954885060   -3.40162408308702    2.12686054791250
H          -0.17932392355545   -4.01073171644241    2.17243870927371
H          -1.16995640153500   -3.33886470029322    1.16862262823997
O          -1.46772658932383    1.12450491155445   -1.72899685151358
H          -0.65816743097487    0.72032222064035   -2.12832103599284
H          -0.87189063011975    2.23246405766916   -0.98683367400395
O           0.94437870324480    0.12745405483110   -2.07919182318900
H           0.95241911253299   -0.51209061753748   -1.34138383144662
H           1.57540414301335    0.81480276955662   -1.81643267321765
O          -1.25546096995209   -2.79868664180736   -0.40622836091160
H          -1.82311713360191   -2.02450697948360   -0.29872522740323
H          -0.35759541346112   -2.41679485736365   -0.40652133710262
O           2.41862118869856    1.92282930760913   -0.53641911447889
H           1.92324779143241    1.47314458476852    0.18133714209809
H           3.34041299615437    1.69451895405961   -0.40966401403397
N          -0.28605833786271    2.84190214705220   -0.26438162066426
H          -0.81714210151445    3.60796649873055    0.13396944493542
H           0.57946707761663    3.16703344220708   -0.69479617091659
H          -0.00388297765812    2.12609043073371    0.47427017835261
