    26
        -50.44789932  Gyration_radius:  2.52503563755 Dipole_moment: 6.230
 S          -0.39351927784911   -0.19718017076927   -1.73785331456173
O           0.07527490287358    0.98305763219882   -2.38669657087819
O          -1.37770009774234    0.01208376778895   -0.70112278642050
O           0.79472240732057   -0.98488829201790   -1.12697154253099
O          -0.93816486064058   -1.20487618915511   -2.74862908318674
H          -1.29891606665963   -1.96723199221060   -2.14934687598894
H           1.42952452723280   -0.38504594045265   -0.61650651016778
O          -1.07590616138822    2.85742083102788   -0.77617309798598
H          -0.59587558605979    2.42433932314577   -1.49923024448210
H          -1.74283094428307    2.21652126356258   -0.51147711121517
O          -0.68969285359628    0.25560423455127    1.93243856027140
H          -0.30045505898580    1.15829919484529    1.87901394808915
H          -1.02766536766487    0.09335384118389    1.03783224563881
O           0.64608984644781    2.48852789806538    1.28409820213244
H           0.04516221097110    2.82552748478236    0.58864814836381
H           1.38551998552122    2.08461690059290    0.81710024024643
O           1.65468563821344   -0.76897585451434    2.45297383217788
H           0.69960698721091   -0.52078397445907    2.30621978814063
H           1.90790597840219   -0.32591041537369    3.26529730680550
O           2.42238530429801    0.41034830869278    0.27244617577499
H           2.20865289153898   -0.04621294958989    1.14232218256476
H           3.31547381035890    0.15383957388306    0.03501229020889
N          -1.72821528849221   -2.80756520232555   -0.92629707268818
H          -0.93117460176483   -3.27656131352893   -0.51618377120305
H          -2.50342357762150   -3.45489736389986   -0.98308733029800
H          -1.98146474768547   -2.02341059609201   -0.33382761896038
