    26
        -50.44744103  Gyration_radius:  2.43762563113 Dipole_moment: 0.748
 S          -0.18335267107855   -0.37530215104408    1.60167571594366
O           1.06253024128692   -0.18007882726035    0.89735211384470
O          -0.33040131491992   -1.63997090525283    2.23976816125711
O          -1.34307997455429   -0.17688234034606    0.58792384009321
O          -0.38717719623838    0.77244346203808    2.58718979780357
H          -0.33465335686589    1.62587547991521    2.02583717874806
H          -1.59837488823646   -1.14131967876430    0.27866196084953
O           0.95556377815351    0.46151904322353   -1.80286419489990
H           0.06891795919669    0.81845697175085   -1.98213937290904
H           0.93101873867979    0.15029123624019   -0.88491909658726
O          -1.66737957663586   -2.57427451227528   -0.00912878530636
H          -1.52391629331206   -2.89154573071862    0.89068357296021
H          -0.77793134267055   -2.68180806612540   -0.47088110605461
O          -0.17778951688501    2.79546809327779    1.08864809947822
H           0.68390503137321    2.66359841505998    0.59495366518456
H          -0.09988712603233    3.63207571966292    1.55237919186952
O          -1.69430193073107    1.23360681608718   -1.79444638328547
H          -2.35777611811672    0.69369503715551   -2.22750995933045
H          -1.70756027211732    0.99044545228062   -0.85814203514140
O           2.10206145950399    2.23820856709930   -0.06058867750977
H           1.86739533557985    1.88759188323071   -0.94066603391349
H           2.24162873500189    1.44495849131385    0.47277539979423
N           0.80357834734086   -2.50967961052803   -0.90873122862147
H           1.17094966155808   -1.99919238507905   -0.11002355574117
H           0.91819838776458   -1.90692495159277   -1.71781066476472
H           1.37783391293661   -3.33125549936753   -1.04999760378047
