    26
        -50.45146512  Gyration_radius:  2.61865825415 Dipole_moment: 3.895
 S           0.05413620217730   -0.76962678603218    1.04710325069678
O           0.89251112568636    0.18862974124392    1.72339343570264
O           0.76075291326441   -1.56427483659406    0.07619918454721
O          -1.11543157835298   -0.05264411659936    0.36542096157332
O          -0.62150221244598   -1.65327613088603    2.08699837930663
H          -1.20069381044359   -2.35485274068265    1.61197381678301
H          -0.74410516936996    0.52423463385587   -0.43121051586012
O          -1.91914293128779   -3.40339740776753    0.79016901275315
H          -1.85454611121341   -3.04396446082410   -0.14735827458986
H          -1.37973309830858   -4.19720855470653    0.81405812661061
O          -0.06022798535473    1.29504838656476   -1.44926566809958
H          -0.24766582580991    2.22377581682630   -1.17103046526540
H           0.89041476355073    1.14913646426365   -1.24745156383982
O          -0.29261152168556    3.70184385681891   -0.36266169518467
H           0.25578885739674    3.48499950857817    0.42444038101148
H           0.04191973630232    4.52993887430629   -0.70971274838607
O           2.38121744574608    0.69487435691413   -0.45787788081598
H           1.99041264860741    0.49676833730750    0.41305642583091
H           2.59707631652634   -0.16529525370732   -0.82660183202652
O           1.42363833278780    2.87567211360275    1.52925183823607
H           2.24076739257236    2.70223258547260    1.05313168807772
H           1.11837622132529    2.00689521985447    1.83551953610570
N          -1.42382513798029   -2.33515798746355   -1.56543015661329
H          -1.95726687187315   -1.48418620010460   -1.69211606475013
H          -1.33407067056179   -2.78784588654976   -2.46621488281006
H          -0.49618903126879   -2.06231953371497   -1.24378428895722
