    26
        -50.44133728  Gyration_radius:  2.66530468055 Dipole_moment: 5.382
 S          -1.32480241686782   -0.05074489470940    0.98028743238974
O          -1.73483528099860   -0.52719920019391   -0.30676754134052
O          -0.31953046844013    0.96386164376067    0.97729284432414
O          -0.85746611654449   -1.28057592292574    1.80942980732642
O          -2.52549866344721    0.45300813087538    1.80064905969198
H          -3.09152483145320   -0.33761842567274    1.98309521823803
H          -0.33854799845219   -1.87627201455368    1.13741091339809
O           0.29898134645331   -2.50204993039476   -0.05013828619874
H          -0.35616098803900   -2.33474978250270   -0.73808369720534
H           1.03326386121044   -1.86740869214903   -0.21737344139078
O           0.49931295893321    2.70782154020384   -1.17813592018021
H           0.19198629979902    2.38914150672487   -0.32181745652773
H           0.21108683589354    2.03031669754326   -1.81648557081215
O          -0.08425824532461    0.28050451010706   -2.37707488751420
H           0.69129174959146   -0.03254486382644   -1.88332445462779
H          -0.84747998240505    0.04163574794721   -1.83366706838125
O          -3.47484012232595   -1.88572498787717    2.43753580244234
H          -2.55706563680451   -2.18583817534853    2.38853551135910
H          -3.76263291833820   -1.97999024763618    3.34955470678467
O           1.73630974246470   -0.32588534443247   -0.33797390507858
H           1.17317584949222    0.21365261659939    0.23634987645924
H           2.43227590350243    0.30908157001549   -0.66814080513831
N           3.19863415432727    1.69802240975126   -1.24624135865722
H           2.35965904562491    2.28519340428501   -1.26365039738964
H           3.55881903065216    1.65336262631329   -2.19093258693587
H           3.88984687147143    2.16100007808910   -0.67033382499913
