    26
        -50.44830383  Gyration_radius:  2.70674458443 Dipole_moment: 8.486
 S           0.47576200432032    1.02347443258783   -0.00693783367424
O           1.67738755996033    1.67733939916735   -0.42033727653363
O           0.23945848967563   -0.22913348543126   -0.71504353960232
O          -0.75679739372995    1.91474484222450   -0.19643126350286
O           0.51760203039591    0.76291854737732    1.48221099079455
H          -0.42921971547541    0.39683367997405    1.82886701633434
H          -0.99933815947384    1.86289726621741   -1.18794828975659
O          -1.86674365946316   -1.64945793001983    0.01622900461179
H          -1.10620188849900   -1.14651904553544   -0.34371871124163
H          -1.68260800391506   -2.57542157405476   -0.14915670011030
O          -1.08086640377213    1.56253952691570   -2.67446405325842
H          -1.11904585628371    0.60578971007083   -2.75660742079412
H          -0.17314293558163    1.83322076242437   -2.99263327313702
O           1.44901061831702    2.02257318479378   -3.11705497794394
H           1.68032678084359    2.20522456522514   -2.19217400393982
H           1.78363332311281    1.11828117971260   -3.26757841774897
O          -1.60629834355451   -0.23535783204925    2.27620447030645
H          -1.90363597262806   -0.76359595645997    1.50482442346497
H          -1.24865488918557   -0.87752788509377    2.94050069581743
O           2.19032142870303   -0.53964913505448   -2.57358614856198
H           1.47795641939363   -0.53350554206467   -1.90964525184883
H           2.99809898900596   -0.36346724687935   -2.08688457189614
N          -0.30439909199719   -1.89518757391030    3.97111638467979
H          -0.53743581100513   -1.72466358391072    4.94127064296545
H           0.63706640885804   -1.55676137575523    3.81200845374920
H          -0.31223593758218   -2.89558892075141    3.81696965019737
