    26
        -50.45378140  Gyration_radius:  2.48862024253 Dipole_moment: 8.908
 S          -0.28446618025093   -0.06869515117641    1.35301367076794
O           0.17357558959114   -1.11046585094739    0.45454488541699
O          -1.48279481708191    0.59007861897710    0.94212073674048
O           0.86308361296818    0.94468498871280    1.53715632003746
O          -0.43918011871152   -0.64826645574755    2.75135785165542
H           0.38358946598680   -1.27916109248464    2.86929087573991
H           1.00018702795193    1.50895120778735    0.69112477237147
O          -1.57354594790513    2.27759197339931   -1.25689497545279
H          -0.68004289750562    2.62461872985680   -1.15870460839437
H          -1.73981229192590    1.76764455618736   -0.45085519000933
O          -2.18911509110357   -1.40597557691749   -0.96339034119889
H          -1.33421356169785   -1.51272068537868   -0.52407183105319
H          -2.64783296985529   -0.73222975442710   -0.45274108567382
O          -1.17886695810463    0.18544292022027   -2.97691512255686
H          -1.65646816960854   -0.50638857330079   -2.48518336108939
H          -1.44403819752375    1.02491585154226   -2.55359335435963
O           1.17910250686869   -0.03497573261246   -1.87467131082193
H           0.36140031115503    0.01602079343292   -2.44847335220659
H           0.92344701675656   -0.60441557001981   -1.13310417219003
O           1.22102274238055    2.18017445988139   -0.64042447123216
H           1.24551295942027    1.33895098761145   -1.22889940866584
H           2.08976322206559    2.58199203525286   -0.70302970954590
N           1.60991162887396   -2.14879887542411    2.65720382070413
H           1.58583854258993   -3.08165426557540    3.04711216327700
H           2.48618285746645   -1.70754745385460    2.90172257815809
H           1.52775971719209   -2.19977207501505    1.64630459958715
