    26
        -50.46062585  Gyration_radius:  2.46676330178 Dipole_moment: 1.854
 S          -0.30179618502983   -0.62976225251676   -1.19636482709164
O           1.03990553489979   -0.05827505132511   -1.17252680960428
O          -1.30662050768196    0.40065666694415   -1.49120588234197
O          -0.61255694460676   -1.30305340812847    0.05594615618594
O          -0.33368998792501   -1.66475195064660   -2.34685837716273
H          -1.26700357500867   -2.01126028758994   -2.28063120075954
H          -0.72414212791270   -0.32624274577761    1.37675314087674
O           2.74572248727632   -0.99742777839358    0.59292702594703
H           2.06214989543838   -0.79511742709730   -0.08566370161568
H           3.58709680474653   -0.95163546608931    0.13463645225821
O          -0.72495627273413    0.44333754067181    1.99830842922668
H           0.21402568967130    0.59143019459120    2.22874636102614
H          -1.07309734979036    1.52364928700062    1.08276248636732
O          -1.12670930527091    2.17269472550663    0.24241713528048
H          -0.13370584400724    2.44404381458107    0.09315220588401
H          -1.30711693133011    1.50264411823356   -0.54598447006772
O           1.95555917664553    0.91914073535225    2.22202080530477
H           2.41457711383394    0.88506778494397    3.06221409417123
H           2.28852330302733    0.15620964611905    1.68368719495062
O           1.36800123519438    2.34632586452825   -0.08355769472807
H           1.37799022003436    1.53534195319910   -0.63764679082340
H           1.71781473867411    2.06896132615602    0.77939759507228
N          -2.77757964564633   -2.12552145754483   -1.60476527948107
H          -2.40203161679963   -2.11928494494913   -0.66141836616854
H          -3.52597427132571   -2.80450964664434   -1.66297868023172
H          -3.15438562429975   -1.20266123112718   -1.78336699242668
