    26
        -50.47254409  Gyration_radius:  2.47178664016 Dipole_moment: 2.240
 S          -0.85544603521433   -1.07129221225224    0.34282332176081
O          -0.26430726223639    0.15626394030382    0.88274700898727
O          -0.02605200142581   -1.60929672882967   -0.72442986812380
O          -2.23859095374364   -0.87288355715929   -0.03550122606056
O          -0.79390550683820   -2.13374490031333    1.49780322850400
H          -1.59999669272293   -1.98272405049427    2.03436238594166
H          -2.16814428349100    1.26028061268085   -1.30418472798310
O           2.18447619924578   -1.27936574557740    0.63927944408983
H           1.78329847458413   -1.02020781595089    1.47328768385709
H           1.42545038093312   -1.59160315606858    0.09723372057897
O          -1.29100889128022    1.59911890665413   -1.10987938802983
H          -1.00331655385609    1.08182299775956   -0.33140536965591
H          -0.11062253394930    0.88382595305450   -2.25577357816874
O           0.59304042769034    0.25964896831784   -2.52401164756245
H           1.82136010054347    0.67092964391180   -1.65279455273683
H           0.35695543817037   -0.57171055289684   -2.06341011951311
O          -3.21926838971435   -1.46650783551176    2.30786125945970
H          -3.09216307410156   -1.10114731350388    1.40592363655232
H          -3.89078265911979   -2.14816767254737    2.23113245865935
O           0.99220851822156    2.51946054492263    0.62481584474449
H           0.54953801139826    1.72350189818344    0.97404419501601
H           0.32771279539279    2.93920567265925    0.06933724663339
N           2.50300504007012    0.89959455240585   -0.85473649279559
H           2.06024949575785    1.66812897364030   -0.28607433767590
H           3.42354775045452    1.15087206367574   -1.19592085946578
H           2.53276220524408    0.03599680292843   -0.24252925697843
