    26
        -50.46273181  Gyration_radius:  2.4455583347 Dipole_moment: 1.664
 S           0.83507597871566   -0.93918182173153   -0.38640668901216
O           1.75200447029215   -0.50310742960670    0.65337507407559
O           0.66055917234700    0.08123968828650   -1.41716676345317
O          -0.46069423424732   -1.31910693586421    0.18683048237090
O           1.41919003326863   -2.18592291758041   -1.09430305958011
H           1.50778416081641   -2.82318461627863   -0.33194347018031
H          -1.22448708684232   -0.30862170033536    0.92171045769784
O           0.65839627675869    1.54871386136652    1.86264565832481
H           1.19259359270858    0.78328726219435    1.53997339033459
H           0.70135432336878    2.19704748758310    1.13939408085420
O          -2.20373638886583    2.04434628941755   -0.49252299149640
H          -1.33829660417900    2.47897564626537   -0.59824799198714
H          -2.26861764525060    1.41349465101572   -1.24148343177879
O          -1.81246483272486    0.20812728136199   -2.38245161360469
H          -0.90499723023184    0.03710645511378   -2.05461619926080
H          -1.76867171337601    0.16885278776793   -3.33847458413998
O          -1.59831532579386    0.52806093352650    1.41861935948599
H          -1.97271381106458    1.16259395443899    0.66326631794021
H          -0.72658011540739    0.99678466804878    1.75759050649008
O           0.48239457314126    2.58138724400212   -0.67198731314251
H           0.61414229577933    1.65138614188771   -0.98423940820712
H           1.04897748790142    3.12909119146777   -1.21684630945696
N           1.40730473193947   -3.27280898146215    1.26080996280378
H           0.40735734646860   -3.22371259050015    1.41435336319725
H           1.80430455600259   -2.39760978036888    1.58786531862695
H           1.78813597847617   -4.03723877000732    1.80425587307666
