    26
        -50.44595838  Gyration_radius:  2.53084199587 Dipole_moment: 3.284
 S          -0.11592383772938   -0.52339397281713    1.38764666344441
O           0.17965329028211    0.23007251700824    2.56566342329928
O           0.97190275029918   -1.32907938917513    0.89385693781160
O          -0.52987275622874    0.46701500881363    0.24303057731556
O          -1.35037989020317   -1.38398069119000    1.55849757404161
H          -2.23040327932485   -0.91826834132257    1.23514131996311
H           0.33201321237333    0.78882249027212   -0.13584502452637
O          -0.28962271185390   -1.95865789028824   -1.46774675534636
H           0.25269105663890   -1.40204220725525   -2.05585395853562
H           0.14369243632678   -1.93342134641739   -0.60232727821239
O          -2.48766167082652   -0.48341627616529   -1.76034484314144
H          -1.75734294860720   -1.14324534418631   -1.66979433451815
H          -2.04803519378701    0.34930160286853   -1.94550677328318
O           1.23526952384590   -0.08702122985289   -2.82316891275472
H           1.99117238443816   -0.35949655770672   -3.34574705009778
H           1.58151052508379    0.40396989785640   -2.06192708755978
O          -3.45142954963823   -0.40902286093160    0.63856776316929
H          -3.14573665135583   -0.37098986169311   -0.32015648535929
H          -4.10757972314550   -1.10938232318400    0.68209620272243
O           1.96988911573304    0.85186518505847   -0.33376594146482
H           2.03893800288184   -0.04076741877951    0.04174148388432
H           2.19092724249598    1.46558388733165    0.42435097480924
N           2.20378795843436    2.16150924428554    1.94732517242387
H           3.04780371504543    2.06903803184310    2.49894591185861
H           1.49732157106112    1.55006396716067    2.36109636343981
H           1.87741542780126    3.11494389850707    2.04422407663591
