    26
        -50.46206277  Gyration_radius:  2.40753223386 Dipole_moment: 2.091
 S          -0.86171031020175    1.54336644067089    0.33720396511114
O          -0.04103927293192    1.31157136909298    1.50646442812378
O          -1.70605688510482    0.39503697027970    0.02382157956404
O          -0.09525603688624    1.96748723010118   -0.82162084670416
O          -1.82938528376307    2.73806808792119    0.69124135418455
H          -2.16409500901657    2.97569057339926   -0.16646277236883
H           0.20145856422597    0.93617176940466   -2.10651050148923
O          -0.32406953985790   -1.82105226454346    0.44644298665298
H          -0.91918635399574   -1.04621379908646    0.33672778779000
H           0.00195707509380   -1.75219783222686    1.38687225660753
O          -2.04441492545807   -0.91432336208949   -2.28417089437029
H          -2.08829064559761   -0.39356799765343   -1.45843126344844
H          -2.05910957983164   -1.83493011425628   -2.01373702776096
O           0.36620954887726    0.14891693004885   -2.67391503781372
H          -0.51454588585119   -0.28099534980065   -2.76385752371474
H           1.14539504893428   -0.67180434408964   -1.78453799933434
O           1.61954219176725   -1.15000165980097   -0.95657635106693
H           0.81250076492800   -1.53289545961698   -0.36302901256435
H           2.00779501473695   -0.37320965355203   -0.41892796175768
O           2.25963318833496    0.97854853554945    0.31162135582020
H           2.20858045286578    1.66955640247772   -0.35615009572069
H           1.46355169543805    1.12633351167120    0.87273996080476
N           0.56959838236254   -1.17039110623182    2.85754331321840
H           0.34680425729465   -0.19813360457576    2.64954226068429
H           1.56337429509749   -1.22396689898529    3.04227151675728
H           0.08075924855711   -1.42706437409526    3.70543451280540
