    26
        -50.46654157  Gyration_radius:  2.46882145098 Dipole_moment: 5.998
 S           0.74138524079194   -0.39557818675736    0.77202558685584
O           1.67954159215263    0.05747399017420   -0.26534789389836
O          -0.22936616394235   -1.32734295412970    0.19359837763318
O           0.09150154184187    0.72056288857558    1.42732467502878
O           1.61184745919234   -1.16559779334286    1.78813844903776
H           1.00781409111132   -1.46850559575451    2.52178127403215
H          -0.85925394783213    1.50341819674492    0.25443826481278
O          -0.08878690810211   -2.02542926383365    3.54380041517893
H          -0.18133726716143   -2.97654701702789    3.45699985039613
H          -0.91584778135200   -1.62969654041006    3.16441156498525
O          -1.55784817234514   -0.39369755681554   -1.89559381042682
H          -0.25269967523735   -0.18366864576067   -2.52484288922532
H          -1.24398355089709   -0.93945564832604   -1.14243626005061
O          -2.00589013712660   -0.92812607336783    2.11920406488467
H          -1.49954417951948   -1.17442001564090    1.31920755404873
H          -1.82782430878348    0.01234982667885    2.22828512913426
O           1.36789921774890    2.47113744988271   -1.36119138664750
H           1.57296966392309    1.67782828760162   -0.82154618119322
H           1.74139729851391    3.21681838632714   -0.88949588451345
O          -1.23702312221261    1.85881645588980   -0.57575332909956
H          -0.49575581993813    2.32158066284584   -0.99466022505109
H          -1.70167115033434    0.49463727296838   -1.48264062994445
N           0.82337669606825    0.01216005059406   -2.71506898640690
H           0.96657143757212    0.99361817332174   -2.95336334067380
H           1.22485007693108   -0.60426922334075   -3.41254595235347
H           1.26767785895951   -0.12806714710027   -1.75472842655132
