    26
        -50.45006092  Gyration_radius:  2.51424478379 Dipole_moment: 1.781
 S          -0.35677922034920   -1.07089990947986   -1.02723080940605
O           0.77848485820913   -0.73447292383658   -0.18861549661487
O           0.00645166882614   -1.79657368824979   -2.20608448791600
O          -1.07812478999235    0.24518570194732   -1.40994428240561
O          -1.39605942828134   -1.82087129206358   -0.23741821208038
H          -1.92137222753983   -1.20239727217377    0.45700795957865
H          -0.42548074221206    0.81138559282669   -1.92641769824713
O          -2.64001227386347   -0.45741439012187    1.41477482178164
H          -3.09852278653072   -1.09061102032254    1.97242248642263
H          -1.97859273433950    0.03103495970187    2.02598512949473
O           2.34127248285706   -0.55557236882845   -2.50801349794909
H           1.60558879290579   -1.19003866521683   -2.60403739752442
H           2.56209383770150   -0.58859653990492   -1.57200142786619
O           0.72675334779660    1.50495462724338   -2.72531374192385
H           1.45289476517868    0.82624988560146   -2.69159444461816
H           0.48947928485950    1.59704080622118   -3.65085602370389
O           0.76359377475564   -1.45947184320939    2.39999423184901
H           1.67671730256028   -1.58718360417398    2.66110519564682
H           0.77380217829073   -1.26067115024137    1.44445765562958
O          -0.88218721942992    0.64543910033817    2.90164324052586
H          -0.46420729525859    1.28150447254225    2.27434179048614
H          -0.26567199413214   -0.10906055743245    2.94536941326418
N           0.24845914989784    1.96031445456408    0.82504567487949
H           0.99234745507094    2.64478579948904    0.77659206495605
H          -0.50417349384527    2.28228694173057    0.22899012064614
H           0.59324527682354    1.09365284299567    0.41979775513789
