    26
        -50.46878246  Gyration_radius:  2.45414043878 Dipole_moment: 4.630
 S          -0.40447860230624   -1.23757921503072    0.81080691701224
O          -0.96949824981765   -1.42235227429763   -0.52213327716506
O          -1.22057709394539   -0.41661585542381    1.66686982381141
O           0.97507867681749   -0.73198191281200    0.70810851133278
O          -0.30182665571833   -2.67381907480929    1.42303992015429
H           0.17124842531292   -2.53009714682173    2.26202371507886
H           1.02077377965149    1.01329670589386    0.41571919540890
O          -1.72855940785859    2.02230071684678    0.89225728337221
H          -2.28958247363441    2.46404594883272    1.53127189062124
H          -1.58312348244974    1.10861838138690    1.23864212333902
O          -1.97473759735626    0.89617275818018   -1.62885284884823
H          -1.81569856845899    0.00062955429379   -1.28879257784355
H          -2.06928404873877    1.45247307416056   -0.83911602167387
O           0.45480786600150    1.51848903039558   -2.46051395926097
H           0.89506607180326    0.15706214556710   -2.30452399809444
H          -0.52325287309812    1.40436370052788   -2.35172105685634
O           0.92599337160129    1.93138020989108    0.10797633053829
H           0.74406816455089    1.88275906465610   -1.58720443933439
H           0.05703413871450    2.21723166505417    0.43142994037521
O           1.39574744994754   -1.61602409305909    3.17066249643346
H           1.40788219614153   -1.07120705834890    2.36213719223446
H           2.29785208672913   -1.90368602264583    3.32810235220282
N           1.11534141909521   -0.89000372061506   -1.96584107588337
H           1.49685380395351   -1.48436045821737   -2.69290117291993
H           0.20445218265086   -1.25431373233278   -1.56801053576105
H           1.71841943038203   -0.83678239122284   -1.13943670824397
