    26
        -50.46397371  Gyration_radius:  2.47379528917 Dipole_moment: 3.492
 S          -1.33262347797362   -0.97026960289516   -0.35792795477866
O          -2.59102992220447   -0.52399448294307    0.18277374499251
O          -0.30119530756826   -1.09982162516331    0.67530940801741
O          -0.79972628939632    0.12906860396621   -1.35992735158661
O          -1.40147700209123   -2.16520977168447   -1.18986859427634
H          -0.17024275575988   -2.04719844001547   -1.96062984807629
H          -0.87856878290538    1.03475708273661   -0.93282488406868
O           2.11414674102340   -1.55665014789648   -0.23005474396458
H           2.50426169287816   -0.67205068759282   -0.06735840461092
H           1.25556361175823   -1.52884017266094    0.25345372571210
O          -2.45909755198594    1.42875367458745    1.91910524319070
H          -2.52806071363678    0.63641708207483    1.33327070480543
H          -3.33567015055300    1.55454901223944    2.28448453878867
O           0.42280576228871    1.10392238620678    1.88366684870771
H          -0.32180511098714    1.35261893517826    2.44217613495272
H           0.15550306947091    0.23445136228527    1.49850962030928
O          -0.89554694110739    2.38052349467115   -0.10892213900708
H          -0.16104448320391    2.18048825459438    0.50119504098005
H          -1.68272814811939    2.31198963670622    0.45801588994775
O           2.83043749221265    0.93861527160730    0.53845586663767
H           3.55585880979860    0.99233308613326    1.16286478001561
H           2.02172629218310    1.11295003130704    1.04777916039676
N           0.78631129485274   -1.78441866804524   -2.42728522589667
H           0.65292215763812   -0.86647073785552   -2.84563877231702
H           1.08094757838608   -2.47325610155388   -3.11158292286601
H           1.47833217499791   -1.70325747598909   -1.58903984600749
