    26
        -50.44731671  Gyration_radius:  2.50950928656 Dipole_moment: 4.855
 S           0.60000908361867   -0.04998465576221   -1.23424850558567
O           0.11290158950977   -0.99201091445670   -0.24686396483848
O           1.79730237535467    0.62390765354934   -0.85653897299705
O          -0.51977909795988    0.95722999366988   -1.55229339429892
O           0.78698070268777   -0.76514185158246   -2.56953875788047
H          -0.13914558757919   -1.08507977215909   -2.82583391969558
H          -1.08041582432176    1.19796407794165   -0.73119152529014
O          -1.61265283877383   -1.55096132606297   -2.96679683444902
H          -1.67121752098231   -2.50414631710547   -3.06739942057080
H          -2.09074508515055   -1.33194208965288   -2.12925463425023
O          -1.80044016103937    1.57766081951319    0.53762334822725
H          -2.11982002203549    2.47948420417344    0.46202721816667
H          -0.94020199330927    1.61717538252322    1.10486691286773
O          -2.52986763441190   -1.09521377381190   -0.51430163617686
H          -2.80821423700609   -0.24108605542419   -0.16965674816356
H          -1.60339907646045   -1.19257814599377   -0.22677507854526
O           3.44890583977328    0.27696124169662    1.47531053108999
H           3.15146393136133    0.42075053216120    0.57010742563132
H           2.77039810285593   -0.27486471877643    1.88753539221222
O           1.11950883208452   -1.20020167357523    2.25484970543870
H           0.75197356707674   -1.19040138358710    1.35236311714229
H           1.21200962495817   -2.12092965622062    2.50465956292383
N           0.51971677951917    1.64771313950149    1.65951790326675
H           0.86655336439226    2.45057106599884    2.17109611121804
H           1.12924494129544    1.51057839443025    0.85618383030637
H           0.64893036453654    0.83454583902368    2.25455233426893
