    26
        -50.46947543  Gyration_radius:  2.39135300112 Dipole_moment: 4.882
 S          -0.07727211337793    1.01688830266363    0.55916372603450
O          -1.42482505411937    1.31820454636860    1.00001205364933
O           0.50120615512227    2.00461047457468   -0.33504030953373
O          -0.19030725192624   -0.31420421062224   -0.30725762984262
O           0.81363784153418    0.65599011734513    1.65252167497508
H           1.78409684036277   -0.41070309140248    1.17126362192198
H          -0.83711633828955   -0.13344505369678   -1.04483945034337
O           0.17229038530459   -2.84157015462872    0.78801737218751
H          -0.27793848646319   -2.79577143219160   -0.05850887096274
H          -0.37021665357483   -2.27360930045209    1.38347274815362
O          -1.92189377244518    0.28736646884888   -2.14612268771109
H          -2.78440712699175   -0.07459651126193   -1.93164285431040
H          -1.98426289768663    1.26207307770207   -1.95195845762314
O           2.26410177081624    0.43263784899793   -1.54120859685313
H           1.71092989337905    1.11778960134028   -1.09989111736999
H           1.79808284006130    0.21759437421454   -2.35202485958179
O          -1.26918350798619   -1.08328974830055    2.27897338577732
H          -0.68386285751958   -0.81203123805450    2.99079562916770
H          -1.46949680334342   -0.25561056741530    1.80687939774000
O          -1.94967518363242    2.73678529476044   -1.20179314157683
H          -0.99862458456411    2.91825169602962   -1.21236289715018
H          -2.08833258109779    2.40385556474038   -0.29722163490136
N           2.25196501739150   -1.18679346930731    0.60142045661879
H           3.13971643580224   -1.47867835846778    0.99470906697934
H           2.36097051449201   -0.75018005133693   -0.34481185276463
H           1.53041752915772   -1.96156418987045    0.59745524698527
