    26
        -50.46098526  Gyration_radius:  2.47171429204 Dipole_moment: 4.612
 S           0.99287708409413   -0.34425274400498   -1.12784442177108
O           0.59681459801281   -1.68753176581621   -0.73170102713720
O           2.14117379520284    0.12997499038315   -0.38325669022426
O          -0.22036000810201    0.60182806739679   -0.79356263544693
O           1.10622380085211   -0.21157273284379   -2.57934768764650
H          -0.27809419385298   -0.31420810774032   -2.94374167342709
H          -0.58269430477982    0.36009693623677    0.12160443907803
O          -1.97380720265242   -1.71671762490625   -0.88972372353394
H          -2.20278268289642   -1.21640963784073   -0.09757331065467
H          -1.00613233358017   -1.90654501384495   -0.78006473530562
O           1.97928319964847    1.92879225454972    1.61999249711086
H           2.37337195566462    1.32930109107862    2.25935207119688
H           2.04921145230126    1.46066645433791    0.76705791667990
O          -1.07054055161556   -0.13968885922394    1.49272791678777
H          -1.06377650695589    0.72781734182313    1.95345928350690
H          -0.24140501203497   -0.58561608698289    1.77884133134151
O          -0.53783351074673    2.26348119224529    2.51308789241869
H           0.36215447429167    2.26490381234801    2.11632841441543
H          -0.42745461823677    2.51915608901314    3.42985690799797
O           1.40300488277050   -1.14911861286761    1.86048636253066
H           1.30652484096600   -2.06512695676876    1.58792804911257
H           1.78526401161363   -0.70739736664744    1.07560010444104
N          -1.38076350262885   -0.37099289161750   -3.06643521014717
H          -1.73988787558681    0.57952079311906   -3.05192761276808
H          -1.73915146771217   -0.90451625441943   -2.20267573787218
H          -1.63122035408620   -0.84584436698194   -3.92846870066232
