    26
        -50.45006089  Gyration_radius:  2.51402070592 Dipole_moment: 1.819
 S          -1.45331184316444    0.18888115893920    0.43498670040570
O          -0.15843746483882    0.75127417907951    0.76938963082655
O          -2.40192311858393    0.27959936484493    1.50290352554820
O          -1.24414728297409   -1.29112212835621    0.02932306630485
O          -1.99863973450875    0.81991710630372   -0.81837789029708
H          -1.48527996618310    0.50882776283916   -1.70137178383964
H          -0.84977511006455   -1.77153870873685    0.82109293645292
O          -0.27764507534866   -2.32244886812214    2.16862443074890
H          -0.88117108779990   -2.95903247966082    2.55838915657005
H          -0.30205490877916   -1.52114136632160    2.75714245588980
O          -0.84015820719404    0.16630118203187   -2.90821235663638
H           0.16682339746422    0.32669106612767   -2.80840391121524
H          -1.14351084814849    0.78979834008575   -3.57258358349869
O           1.63474466085364    0.67536819758735   -2.54404341841806
H           1.51900128383168    1.50438799822246   -2.04309853076338
H           1.87822563380415   -0.00017612386545   -1.86794600789275
O          -0.59144160061700   -0.03809621055428    3.42640090766836
H           0.05347897557180    0.55102868336660    3.02317355673562
H          -1.42296911823218    0.15338481527199    2.95183860909231
O           0.91243070055953    2.64237424491893   -0.81271168533266
H           1.47545930585104    3.18472543898486   -0.25849921174106
H           0.47627452572899    2.00062781448402   -0.22054211810042
N           1.82178005015570   -1.02717567303440   -0.44954045368000
H           1.27601993068985   -1.84836638016717   -0.68064322959022
H           1.23023437066941   -0.43503547336916    0.12811850379444
H           2.60599256127484   -1.32905394093102    0.11459070096176
