    26
        -50.46485759  Gyration_radius:  2.56534849006 Dipole_moment: 4.121
 S          -0.65298665252130   -0.27343071582720    0.59681336645973
O           0.74046636742815   -0.48714589755125    0.19414482501733
O          -0.65263668466897    0.56439718157039    1.90152486214730
O          -1.37154975580689    0.48320175406619   -0.42345652536013
O          -1.31397593094748   -1.53952698929686    0.88734872393525
O           0.90360525029544    3.67910054235651    0.20462106970325
H          -0.06076574985258    3.47542462204497    0.23353134520787
H           0.99817767181365    4.57740484173854    0.52476927773534
O          -1.64083131866664    2.93553065127992    0.54850386761631
H          -1.75931701172926    2.69680522595023    1.47157510676388
H          -1.64117192189942    2.08128659076430    0.06898332980859
O           1.77359804076656   -2.88493995796963   -0.13222558701950
H           1.50079028267904   -1.94546086923787   -0.00074222308746
H           2.00815125727366   -3.21266182128947    0.73747724953925
O          -0.40568495100863   -0.72648826741177   -2.52621880659826
H           0.51781833521944   -0.46836368523467   -2.46577593554782
H          -0.60351904412163   -2.18334789072374   -1.87214692086251
H          -0.86279371632632   -0.17934218503266   -1.84332569384176
O           1.66580604024854    1.56199675257224    1.63720837064323
H           1.51411418327427    2.38780000949440    1.12075288149523
H           0.25688123701748    1.01457830943136    1.93875590895895
H           1.77212412550006    0.85581071823886    0.98085767046934
N          -0.67350770514166   -2.96080303772854   -1.15269220905699
H           0.29951620463057   -3.23179486679222   -0.88055001304523
H          -1.23571150878816   -3.74255852811733   -1.46939152281543
H          -1.07659703466514   -2.47747247734849   -0.28034242826930
