    26
        -50.46212115  Gyration_radius:  2.47156500764 Dipole_moment: 4.572
 S           0.95935406314460   -1.47135125472607   -0.62625147225993
O          -0.49303831844445   -1.48298627182413   -0.51074644749545
O           1.57288792753701   -2.68199211281881   -0.14049956876312
O           1.45632475342355   -0.28674111935785    0.34138791223076
O           1.39665477943713   -1.02083330937169   -1.93404580062787
H           1.31325099999795    0.48799243452072   -1.88850044007418
H           1.36421223182919   -0.64508748822408    1.23722581280465
O           1.17887961637216   -2.08483796422128    2.34512848773455
H           1.85733720976064   -2.45104999361741    2.91557301887842
H           1.29108125239467   -2.52402795564560    1.46700387437683
O          -1.07354272108681    2.26350800401733   -1.09698750193832
H          -1.60850419713873    1.50248127065417   -1.42463969343114
H          -1.05153976659218    2.17390623837673   -0.11511184758602
O          -1.26487921413677   -0.74890091046614    1.90286876043159
H          -1.10657125365187   -1.07381178324675    0.99150530678041
H          -0.60876468201272   -1.21042646529969    2.43769669785788
O          -0.92230290489675    1.86050159173412    1.53738105201683
H          -1.02147294203088    0.88883465688296    1.69111205643072
H          -1.59125826362613    2.27993005206942    2.08039315839751
O          -2.22053892059649   -0.00625841572948   -1.83412760314845
H          -1.54858180154928   -0.60717300288737   -1.44166678297165
H          -3.06466967263639   -0.30134392404999   -1.48850154081248
N           1.31705641031956    1.54298929535841   -1.68402467301609
H           0.28003749038270    1.88274374119764   -1.48659223998813
H           1.73794710857043    2.05764944038313   -2.45077228374265
H           1.85064080524318    1.65628526629934   -0.82480824200912
