    26
        -50.45412340  Gyration_radius:  2.46273559038 Dipole_moment: 6.305
 S          -1.07651383497929    0.28446464226981   -1.36937481426232
O          -2.46077017122661    0.14565484301993   -1.04345050978883
O          -0.25103341848717   -0.79057608173078   -0.84237392430788
O          -0.51025080807403    1.61755398606679   -0.87859696222766
O          -0.89338535522396    0.35903996108418   -2.87983933178894
H           0.10893674933825    0.45983889191023   -3.05205744138945
H          -0.49279388778132    1.65357424270468    0.17293398031905
O          -0.48605227867017    1.53680305380771    1.61016119295974
H          -1.35187777984570    1.08213647615394    1.77780656614548
H           0.20272855264501    0.88912509434530    1.87548981344578
O           1.62844800476837    0.47229174179843   -3.16238103578972
H           1.90110097070331   -0.40465737660426   -3.44163092358383
H           1.96251296169361    0.58490209001534   -2.22095008005979
O           1.10440819990825   -0.51321048052260    2.37901258859642
H           1.11637944815173   -0.57771083103292    3.33573290060758
H           0.49019853896236   -1.20228004878257    2.06174048357843
O          -2.60565889314301   -0.02174381403068    1.65807200708257
H          -2.19052380883160   -0.89118491482744    1.75102733426489
H          -2.81366233345580    0.06429971443872    0.71133134792955
O          -0.80886944255086   -2.15489293383212    1.31451841414923
H          -0.64263198921191   -1.69335818841714    0.45783483392061
H          -0.85275905513818   -3.09042949598382    1.11143127138304
N           2.27460142478150    0.56006466991102   -0.60217839687377
H           2.05616031763436    1.47210530179629   -0.22105034173909
H           3.09615963882077    0.21217499186940   -0.12434974665568
H           1.49514825154877   -0.05398551513316   -0.37885922550067
