    26
        -50.45855800  Gyration_radius:  2.39949605262 Dipole_moment: 4.683
 S          -0.11571269162967   -0.81298830924181   -1.32195843934285
O          -0.56705025130684   -0.87322626943640    0.06618692459687
O           0.42903078763978   -2.03850666237587   -1.80066946430268
O           0.90046482043223    0.33881461068374   -1.42413761781681
O          -1.25990341305433   -0.35132769393809   -2.19421069096947
H          -1.68272812496083    0.54578467243219   -1.79682302393377
H           1.65601768596188    0.23201396796273   -0.70053844662935
O           2.54934182042889    0.05785191387657    0.42664467700609
H           2.47054644732206   -0.93516125188213    0.55634041952926
H           2.06985204062335    0.47101718725405    1.15859560454999
O          -2.20460424492710    1.68382177404375   -1.12973578120644
H          -1.42930799645825    2.23485084141928   -0.84835835754610
H          -2.59043203605384    1.31810310335362   -0.30607605779423
O           0.04482742237892    2.78035911415019   -0.27595801922329
H           0.64699411437364    2.39920204932920   -0.92315207358282
H           0.20308721369695    2.28938709587380    0.55221296038795
O           0.28563344886043    0.96089597838435    1.77024861220380
H          -0.03666839618280    0.23678683944647    1.18991633042710
H          -0.39931418213626    1.09652133553594    2.42831207092420
O          -2.84066363435503    0.16433707449991    1.00448324080905
H          -2.05670195084927   -0.34678703753797    0.72084324494085
H          -3.59867598797135   -0.41107840510166    0.89251108026045
N           1.99534411882122   -2.51361850545042    0.53637269411532
H           2.70882832644115   -3.23038933402330    0.48735833123328
H           1.47414402980688   -2.52855743214543   -0.33998297136236
H           1.34765064309946   -2.76810665711276    1.27157476272644
