    26
        -50.46070891  Gyration_radius:  2.43547500871 Dipole_moment: 1.975
 S          -0.36841411368839    0.94140168400337    0.61957162949752
O          -0.61743477905636    0.52935419112150    1.97696916351864
O          -1.24066682907355    0.26402235374926   -0.34116031179358
O           1.03875610354099    0.73772890614898    0.23468186311438
O          -0.65728143764142    2.46390593519368    0.45269956376162
H          -0.09156802778728    2.87450995637303    1.16180477142555
H           1.38842707742643   -0.89389515557378    0.20075336616147
O           0.65121164600420   -1.69814183757588   -2.37472765291607
H          -0.36009205572625   -1.86522039540699   -2.28524407095097
H           0.73611483075602   -0.67075290372767   -2.49798620257144
O           1.32636984978387   -1.86243607355696    0.01885926827435
H           1.03457901816710   -1.86255237312769   -1.38614734543942
H           0.49790201876875   -2.14926013269444    0.46195804129984
O          -1.83118743579166   -1.85378025882516   -1.84212165057076
H          -1.82231447327774   -0.98457671783810   -1.39358193287856
H          -1.97680042198828   -2.49401659587383   -1.13737991700638
O          -1.16657458913542   -2.06653432101825    1.01234750429672
H          -1.31165690087584   -1.16684211658313    0.66205774185493
H          -1.16710209480695   -1.94825342148375    1.96526845972369
O           0.69481634784047    0.83561677716645   -2.33276628238871
H           0.95908556589534    0.90564750997028   -1.37991626541089
H          -0.22158522387538    1.12817448000399   -2.34770490576773
N           0.97613598740175    2.83046340048682    2.45345927748564
H           1.89193753984017    2.60368795445117    2.08690155771856
H           0.54708200253817    1.96028382175603    2.75905241211716
H           1.09026040500079    3.44146533300739    3.25235189756093
