    26
        -50.46187358  Gyration_radius:  2.54556938966 Dipole_moment: 4.292
 S          -1.17724029221053   -0.96973704116677   -1.03312021763625
O          -1.84707003573379   -1.76779745953180   -2.01809881890501
O           0.28261754248387   -1.04996493370886   -1.12455748399652
O          -1.52514117606553   -1.55641772400425    0.41322555023817
O          -1.62418615080251    0.41674472487838   -0.94967177983488
H          -1.53160191081983    0.84437399738103    0.51095024648788
H          -1.28326200803850   -2.49952728644366    0.30782707306746
O          -0.67856371577249   -3.76852982581180   -0.73705002500097
H          -1.19067464029790   -3.31882702212298   -1.43525558202920
H           0.24122822527558   -3.56473441524197   -0.92715024624401
O           1.78154970621980   -0.86249852813367    1.02129025225499
H           2.67409068964817   -0.99633370700381    0.69865789031466
H           1.19372642477999   -0.95670218578477    0.23672995776562
O           1.02488119241709    1.47828408776485    2.04371892899452
H           1.28654074933870    2.10025908778496    1.32608689863473
H           1.40804474269571    0.60885533571117    1.78743235144133
O           1.60386912940912    2.92443201380309   -0.10515891503673
H           2.46910753041978    3.24763441672980   -0.35795451147252
H           1.27680803254469    2.38813726551649   -0.86765993156876
O           0.70145454630774    1.40738920573038   -2.09697599218261
H          -0.24050576290992    1.60240045760234   -2.13722783910787
H           0.72744219865550    0.47275559537913   -1.81730847345845
N          -1.44037321970373    0.94738616862221    1.57305877674204
H          -0.39651539280684    1.22883662145642    1.81690213750190
H          -1.63130992942380    0.01676909801950    1.94246766553707
H          -2.10491646562254    1.62681206246164    1.92884208751882
