    26
        -50.43862829  Gyration_radius:  2.61419247757 Dipole_moment: 4.855
 S          -1.53094742783181    0.00061074470118    0.81179970415900
O          -1.85819151599179   -0.37183441155633    2.14112018189466
O          -0.72928696523347    1.17556921523514    0.64590981009209
O          -2.84916269325008    0.16478819917336   -0.00081270852247
O          -0.83387926441760   -1.19892427597351    0.10624855189231
H          -0.81411482405305   -0.97227129866534   -0.84792455312329
H          -2.58668049638128    0.17636921817902   -0.94476271186499
O          -0.09035221149778    1.64273491686870   -3.19087715033915
H          -0.49444749343155    2.51144000158399   -3.22404519362071
H           0.58991473213445    1.68948951320508   -2.44684119876861
O          -1.52721583980428   -0.23207605296798   -2.22764297746576
H          -0.96950011825365    0.51826480992419   -2.62900058977882
H          -1.77794516759910   -0.79282683202450   -2.96494510641438
O           1.39175655957300    1.70102872418359   -1.09493066923272
H           1.86055151028052    0.84095321950901   -0.95773685438327
H           0.72131410778161    1.72496863630668   -0.39762678651573
O          -0.15655840339438   -1.71847667771317    3.78223810452005
H          -0.89407288951166   -1.39103521633751    3.24294755784704
H          -0.28783415115860   -1.36215747115670    4.66335677495415
O           1.37049301504796   -0.07816596685848    2.15262592761006
H           0.96897895753068   -0.72915397808789    2.75427159815356
H           0.66705560511523    0.50593667491563    1.85565355805890
N           2.38049139478096   -0.73525845392203   -0.46754103129463
H           3.37954485089273   -0.88965120003371   -0.52392816099217
H           1.91975752803651   -1.58954419916080   -0.75554606474293
H           2.15033119067774   -0.59077785931738    0.51798997786286
