    26
        -50.44663575  Gyration_radius:  2.49824696094 Dipole_moment: 6.446
 S           0.94227762095434   -0.08547818214921   -0.26392496495840
O           1.32303784899153    0.51643536330052    0.99324635782816
O           1.10564938830522    0.76446726787454   -1.40378949313705
O          -0.53211594260997   -0.50876479304730   -0.10173984672106
O           1.72692684799909   -1.36910822897396   -0.47361441061461
H           1.52055850169853   -2.07366627746311    0.24442399351283
H          -1.13306430354854   -0.23601640326783   -0.87412873883297
O           1.28126793523317   -2.99451975009286    1.41593749724926
H           2.12517426850861   -3.14938289706595    1.84629606172493
H           0.73779936891219   -2.41602130660780    2.03198018670531
O          -2.11387473203514    0.42084134558053   -1.88190711979686
H          -2.98764631636116    0.51224454947710   -1.49660881237570
H          -1.71432261116113    1.34079208652433   -1.91183721882384
O          -0.01229868710169   -1.20649276460638   -3.01732837254448
H           0.59080003883970   -0.53902095971709   -2.67493412876366
H          -0.87926720213302   -0.79205603097990   -3.05836738032107
O          -0.31434623055041    2.64412486077130    0.99077343717797
H           0.18406345003152    3.40424217753720    1.29854573038550
H           0.29156318449935    1.88145692384338    1.04867821637993
O          -0.82742694612177    2.66564184636839   -1.68524151299257
H           0.02223148203626    2.24182770747680   -1.87864986931404
H          -0.80644319818569    2.81077229559316   -0.71937261340100
N          -0.01713679605645   -1.19950860920894    2.83827195670687
H           0.45958979301551   -0.43728117316687    2.35843825133560
H           0.01123152272543   -1.02060649013015    3.83418647678391
H          -0.98422830590321   -1.17492256787988    2.54066631680840
