    26
        -50.44663572  Gyration_radius:  2.49822930426 Dipole_moment: 6.444
 S           0.28932933887588   -0.88160983859721    0.32240080262034
O           1.26488617494180   -0.22642972530394    1.16310017666598
O           0.83966784688240   -1.55094881206484   -0.81666762002390
O          -0.70149015100683    0.21762713421766   -0.11262033618851
O          -0.51577050637745   -1.86928414791059    1.14922493657324
H          -1.05447760362021   -1.40791078713116    1.89189615427770
H          -0.91052195970580    0.22300857767506   -1.10676898014447
O           1.55160860203558    0.10000377570711   -2.86579665342985
H           1.52308085340871   -0.74091710849443   -2.38522768472760
H           1.90496835437957    0.73518112480283   -2.21303206814680
O          -1.73119153045445   -2.18517589559105   -1.66893585842388
H          -0.80596911201128   -2.26661082824096   -1.41629216498920
H          -1.77136294813064   -1.48428306678458   -2.32634178928395
O          -1.01099182350572    0.43965117000687   -2.64056735585042
H          -0.04312296786267    0.32356913707392   -2.87843404936759
H          -1.23706505806015    1.34993611512393   -2.84195753105107
O          -1.69203539018936   -0.67797800010228    3.04880786655832
H          -1.34793398834899   -1.05623248173025    3.86123297603768
H          -1.29745221263795    0.24195526025271    2.96152151777092
O           2.36898890644905    1.43393845965824   -0.63479834253240
H           3.31946783674324    1.42702119630924   -0.50259962464160
H           1.99463717535394    0.86139469219866    0.06106424528063
N          -0.40337010942366    1.57663444434634    2.61607695179984
H          -0.01115071797830    2.23409269428877    3.27832922379909
H          -0.88409249626126    2.10199481584611    1.89680625000938
H           0.36136349649355    1.08137210446683    2.15957897739444
