    26
        -50.45414840  Gyration_radius:  2.59139069145 Dipole_moment: 5.793
 S           0.02869415682339   -1.54532338205638    0.97491722251152
O           0.93243430336652   -1.32807912351603   -0.15334451476338
O          -0.94637696839404   -2.57020380743437    0.75052337488898
O          -0.56158491756712   -0.26157730021123    1.38728807590606
O           0.93367109964131   -2.01314826014055    2.17715778075909
H           1.52173272687911   -1.26184901081073    2.31731994253421
H          -1.18721025345675    0.90543070643074    0.32750012780407
O           1.61348320806024    0.66517336521403    2.36783969606408
H           0.72408835639796    0.43627710320831    1.98916206797638
H           1.44322849608145    1.01489986912551    3.24488177636025
O          -1.28909365276668    1.49213189662015   -0.45324249167594
H          -2.00641571742125    1.08399837536947   -0.99901130021690
H          -0.06233567024380    1.17848528209012   -1.10962804262654
O          -2.95297672070732    0.14830040799597   -2.00640437039029
H          -2.75314248199898   -0.79235095587305   -1.78932753668431
H          -2.75150685623690    0.24859006824840   -2.93825499147819
O          -2.31969934707883   -2.38634534416289   -1.49174502502539
H          -1.75007977882695   -2.46358813810115   -0.69475769994377
H          -3.05319951195371   -2.98466928934704   -1.33648272952737
O           0.87906419506360    0.79872110181020   -1.44738216147699
H           0.91522233395385   -0.13892235266243   -1.00615716324667
H           1.60912040023411    1.34189004890528   -0.92372933445136
N           2.59757963352289    2.01606175369310    0.01260181241450
H           3.56211807227245    1.81235490469431   -0.21405427830543
H           2.38257328188243    1.58553773255111    0.91360318376736
H           2.49061163242925    3.01820434837448    0.10072658883703
