    26
        -50.45414827  Gyration_radius:  2.59204518452 Dipole_moment: 5.792
 S          -0.66689683948407    0.88310066204958    1.45428459945563
O          -1.38529005627160    2.11224522061671    1.29754676692161
O           0.74458145930881    0.96844394561834    1.08356295571022
O          -1.29271167077645   -0.24955662526283    0.75283823629767
O          -0.69582654634439    0.51407221516275    2.98604081675657
H          -0.25671241595036   -0.34394550149526    3.01537120709950
H          -1.07680755230147   -0.61653819698000   -0.88924222336604
O           1.62600706816947   -0.26371073819489   -0.89256102470030
H           1.32458180932569    0.33364486684772   -0.10031408213956
H           1.93464523426415   -1.15116730636055   -0.42411354786616
O          -0.64980148676546   -0.74478285950204   -1.76404561300376
H          -0.92672090835332    0.03252038258928   -2.31003025700376
H           0.69954793621152   -0.49758917109082   -1.37360151938473
O          -1.15071695827453    1.52671834460576   -3.01959146545367
H          -1.19204593674561    2.18481738270509   -2.28684751249167
H          -0.42546904088064    1.80699281891673   -3.58036564645816
O          -0.07624071294797   -2.04177849177168    2.11627162776969
H          -0.57645230553976   -1.44750964720944    1.49705302808562
H          -0.71139318644731   -2.68892779541408    2.42972894542218
O          -1.14355670106914    3.30743900112177   -1.03960652332673
H          -1.16518223072505    2.87222857442587   -0.15887827626316
H          -1.86876552421824    3.93517680687521   -1.02867413488137
N           2.21203003788261   -2.40237812367795    0.39182076202355
H           1.47206303876576   -2.38009040734422    1.09560899353643
H           3.10388878612120   -2.37738837318619    0.86835710799135
H           2.14324472300396   -3.27203698409348   -0.12061324075601
