    26
        -50.46798776  Gyration_radius:  2.53175867532 Dipole_moment: 3.773
 S          -0.07334708743670   -1.14822937302117    1.99297678300353
O          -1.10486485086659   -0.42265983767817    1.26608020741579
O           0.83208805272167   -0.26490878568868    2.70392949382247
O           0.62184003112281   -2.10858011773114    1.15950488663664
O          -0.84713891388367   -1.99226232661369    3.08917518099136
H          -0.14119400288857   -2.53608301125666    3.42055823539343
H           1.48871118634420   -1.35096123549169   -0.00941395935867
O           1.95097135874537    1.38142810178431    1.06963929939603
H           1.53450134828784    0.77688170489424    1.74354721404813
H           2.71944441822800    1.76043604535393    1.49934596855570
O          -0.78126346523802    2.12646149590864   -2.19419740823344
H          -0.20548267679486    2.84663499099482   -2.45392449366729
H          -0.82906906994183    2.16303805149682   -1.19794706410870
O          -2.16183733793136   -1.48282165586597   -0.84897271168132
H          -1.76436989384744   -1.20550445799840    0.01463621901519
H          -3.00474847927283   -1.02703435931934   -0.89805920557629
O          -0.63893982454413    2.08597382081778    0.41491762365483
H           0.30729702662424    2.09302784561859    0.62785339697862
H          -0.95490570094046    1.23565958388207    0.77537501355474
O           1.86621354723760   -0.72421164400454   -0.67170118422176
H           2.02058025276161    0.09867219329272   -0.17316275512366
H           0.70236664106835   -0.57731307277341   -1.66554769016680
N          -0.16616523888530   -0.46483464477245   -2.29126162049395
H          -0.97349144254610   -0.93293646347170   -1.79733097226246
H          -0.00884649824618   -0.88870260089397   -3.19845269306377
H          -0.38834939988495    0.55882975254492   -2.37756778450701
