    26
        -50.47241001  Gyration_radius:  2.38523699726 Dipole_moment: 3.009
 S           1.00124399478994   -1.19531407937116    0.11015133367361
O           2.08128479932255   -0.76181894925780    0.94437346987469
O           1.03435433791808   -0.58399450968361   -1.22044481058081
O          -0.31759930170033   -0.94514664153427    0.72892885226694
O           1.10965371671555   -2.74040899979987   -0.08953468661968
H           0.29842893458011   -2.96930343785442   -0.57119892256219
H          -0.32923369678571    0.15775383993764    2.14334924662871
O          -1.48786527621054   -2.67837841030180   -0.82178683093948
H          -1.24940130890774   -1.97695053653775   -0.17605293137625
H          -2.06750172774095   -3.29083706440353   -0.36465216371678
O          -1.34875525445242   -0.31673138948620   -2.46678271750238
H          -1.75137627017463   -1.17988361138850   -2.32618271096263
H          -0.42034260384457   -0.43233784218472   -2.18953805407506
O          -1.62206285480347    1.20282814693266   -0.27428380820563
H          -1.78646845533886    0.84345522622747   -1.17166741478189
H          -1.27478286065299    0.42837760579600    0.20839557499777
O          -0.40949699105428    0.97176595394968    2.67067952099981
H          -1.21058175484765    1.40731670962800    2.36932887879626
H           1.19115193971482    1.68326927743142    2.29673649871634
O           1.97113749599376    1.79615680630340    1.71676081917012
H           1.36300879472527    2.05624507617582    0.32517034497805
H           2.27596393213833    0.88013851415061    1.56360219101199
N           0.87137262195428    1.97515280545345   -0.63310572963058
H          -0.17897349770203    1.92960095595763   -0.49020557412116
H           1.11515007294295    1.02436966438824   -1.00997112567380
H           1.14169119342008    2.71467486951748   -1.27206925041321
