    26
        -50.44730055  Gyration_radius:  2.48506599311 Dipole_moment: 4.232
 S          -0.36284350237516    0.81638034557939    0.19470457037926
O          -0.41168329139575    1.46854803018233   -1.07045823630075
O           0.65981315415114   -0.20493195431428    0.32115608902503
O          -1.71483842091676    0.14266886200109    0.50818431086535
O          -0.23859802298335    1.83304020811683    1.31867251714888
H          -0.22512124682216    1.36185865059651    2.22996949336473
H          -1.96855314595009   -0.52332862221798   -0.23821069544748
O          -0.28709583185834   -1.76972712967746    2.25422649870764
H           0.15827063799214   -1.35180025253176    1.49192621588380
H          -1.18505921593344   -1.95599639647481    1.97008923992273
O          -2.24828613767012   -1.45176043705538   -1.36164735078552
H          -3.14371872878223   -1.32418647304451   -1.68353593857103
H          -1.63738769841043   -1.12018925948480   -2.09764368930087
O          -0.64062430019807   -0.37980232653275   -3.05713328924452
H           0.21918254727906   -0.82112339004849   -2.91951850300583
H          -0.55618997059104    0.47004209963202   -2.59469316003460
O          -0.10861918588289    0.54559942722554    3.49524755627519
H           0.78285823159267    0.62242617248241    3.84457884469877
H          -0.21541449432223   -0.39210860116160    3.18952030027084
O           1.59483368009959   -1.41472053898072   -1.94153250717056
H           1.83111413815231   -2.31530234092151   -1.71324432974563
H           1.37692609747540   -0.96355559446892   -1.10860593667901
N           2.34314622958173    2.26676957180896   -0.18349376675478
H           2.18369372410590    1.29128471884782    0.03300989182273
H           2.17112514379422    2.37561258538754   -1.17579722008119
H           1.62306960978635    2.79430264510228    0.29422907474701
