    26
        -50.45837593  Gyration_radius:  2.38765253217 Dipole_moment: 6.394
 S           1.40396559656427   -0.23346591980198    0.91528888369408
O           2.68868123067338    0.38559211308868    0.81371652095308
O           0.89493854454157   -0.75972497501485   -0.35268344864979
O           0.38102714902804    0.86651266303527    1.37047814482477
O           1.31246118998293   -1.27735854528328    1.95413117092613
H          -0.01540283566560   -1.58464300914071    2.06270339526601
H          -0.49955656621579    0.68679940011322    0.94429372966074
O          -0.97839887853458    2.14846166929125   -1.33803152556105
H          -0.19946870684366    2.49426835244541   -0.87829904092545
H          -0.58161659741636    1.58562410014374   -2.03652069085994
O           1.78921203212683    2.39010456138976   -0.70106935696114
H           2.14739192032377    1.64918287995850   -0.17405236781687
H           2.21109493994180    3.17866161536098   -0.35570476173331
O           0.73301387661444    0.58112981697442   -2.70100336732467
H           1.40386974749999    1.26238106985191   -2.58743243565526
H           0.84382585919338    0.00485556095788   -1.92355736907088
O          -1.91532265387208    0.32425286095907    0.26199176233064
H          -1.75267308942557    1.09536417145055   -0.35173895167347
H          -1.86994426931916   -0.45371908203592   -0.30936555516644
O          -1.14094794600320   -2.31953627798719   -0.60389288768069
H          -0.31097775742452   -1.77179298790591   -0.58585445588416
H          -1.02317884033167   -2.95773138426077   -1.30847845390900
N          -1.14137221099224   -1.78802184790967    2.01405716447279
H          -1.45918997330875   -2.34190796911632    2.80225311182475
H          -1.29047114752192   -2.27358856093779    1.10629958008186
H          -1.63096060363941   -0.89170028577885    1.96247119491592
