    26
        -50.45748029  Gyration_radius:  2.49140948974 Dipole_moment: 4.350
 S          -0.38974662770663    0.20125254879704    0.95998925981215
O           0.06790364630395    1.46477703486556    0.40785481315941
O           0.64953625658638   -0.82558525090769    0.87725870735433
O          -1.60645020958391   -0.26652888924929    0.27705596146059
O          -0.72286310576614    0.45525839597338    2.43850639729531
H          -1.03974726764707   -0.40372005551177    2.84695932749049
H          -1.45453710782643   -0.19455601447732   -1.15560877684600
O          -1.38665680650422   -1.84025556783969    3.41234735535630
H          -0.68211750702009   -2.15674214734216    3.98185693814797
H          -1.34572518978123   -2.38699107899936    2.58558608032035
O          -1.11974313641542   -0.05605849082583   -2.14332751513746
H          -1.07806110302730    0.95756071327794   -2.22497555338444
H          -0.09129220487420   -0.38615240331049   -2.07602277890785
O           1.23272315406267   -0.70228823628560   -1.68696271156275
H           1.12506424360902   -0.90684265721824   -0.72931669316077
H           1.78844821026427    0.11722125560858   -1.68870276686397
O          -1.02456443438790   -2.87744800201778    1.02485283579449
H          -1.73290000957465   -2.45547883384340    0.52721065987878
H          -0.26066633656163   -2.27540941288513    0.92041547105593
O          -0.76835707173126    2.45618279521237   -1.86294725318857
H          -0.53408989615274    2.24300911554500   -0.92739579216896
H           0.01526656883085    2.84368610107895   -2.25790930992638
N           2.51447964298199    1.56910123760168   -1.07591751745291
H           1.77129977561657    1.69939906523475   -0.38760993643676
H           2.73996596609420    2.47249463687342   -1.47406147217345
H           3.33283055020580    1.25411416064840   -0.56913571998374
