    26
        -50.45612478  Gyration_radius:  2.43699926423 Dipole_moment: 2.662
 S          -1.18567398474701   -0.21684335747345    0.51230786195796
O          -1.23994085374361   -0.62489548038472    1.88609631066277
O          -0.78083185120201   -1.26473390454002   -0.40498743116070
O          -0.19323714527914    0.95774563189525    0.36983784976037
O          -2.49631437538281    0.37956312649593    0.06896776090603
H          -2.46744909212653    0.36631621099629   -1.00547619475181
H           0.74168643528944    0.64021839012717    0.67808752392737
O           0.93684893559737   -2.43571263352933    1.30675253337122
H           0.28186591071473   -2.26303294700344    0.60953090542329
H           0.43882697840314   -2.46239126299729    2.12816809697846
O          -2.19214834114664    0.21975889729801   -2.37436457932193
H          -1.41367354640839    0.86939083566350   -2.53665397696629
H          -1.80108402673456   -0.66073955043161   -2.38470643567967
O           1.51707185508885   -0.47624621269612   -1.72163336381162
H           0.73425605448618   -0.89649250417708   -1.33308124403553
H           2.14080544717289   -0.35180355952012   -1.00120515903708
O           0.63605815940940    0.38765581489075    3.54659793735317
H           0.28036923296990    1.12765068052088    4.04024301091993
H          -0.11490721832291   -0.00846831681584    3.06583058166837
O           1.97266669226783    0.00613116860525    1.24956835761928
H           1.83626836462200    0.27373839786787    2.17807439699863
H           1.78398763012362   -0.96485528804485    1.25428660629595
N          -0.09465083359324    1.73572333060771   -2.57043559685477
H          -0.09196846048174    2.31369229866864   -1.73922129074277
H           0.13022120123264    2.31236808331594   -3.37031695308782
H           0.64094683183868    1.03626217039346   -2.45226749841170
