    26
        -50.45857462  Gyration_radius:  2.56360809508 Dipole_moment: 8.447
 S          -0.75040541696787    0.18728182536336   -0.45840960193087
O          -1.36826870075640    1.11208311436817   -1.37194694593889
O           0.07211127991024    0.84403208705676    0.55342596557167
O           0.22670320076672   -0.74769688746056   -1.27247991142461
O          -1.69390752883823   -0.75483018509852    0.15261758275904
H          -1.06644348690113   -2.05739187101660    0.16264390328123
H           1.01223063673299   -0.13213909312554   -1.44367094657020
O           2.00197983848028    1.05536607756882   -1.34915780681311
H           1.60252888220971    1.71989877050322   -1.96756192086284
H           1.67551108914746    1.29564264021845   -0.47000481127854
O          -0.64547287490395    3.50192362839377   -0.21901759525036
H          -0.19565534187149    3.11862240878610    0.53836669912829
H          -1.14363246430356    2.76288720963184   -0.60218432575421
O          -0.53150192737778   -0.46845242184059    2.74516913902942
H          -1.45970440292506   -0.64291086528446    2.56954160261530
H          -0.24669337969770    0.10464529299243    1.99762457119487
O           0.43659966037518    2.70478117666701   -2.69051283628815
H          -0.31892823953511    2.11015197551611   -2.55088516193664
H           0.28051937828694    3.42570326950764   -2.06256772249024
O           0.94905311687637   -2.57971186850721    2.33095843732615
H           1.84756337321314   -2.25045392985009    2.26771270243846
H           0.39843911895299   -1.80470207080853    2.63432147850483
N          -0.42851528415518   -2.95401320240129    0.12766423883994
H          -0.97736018621774   -3.80663034411346    0.08392882085180
H           0.18258394802499   -2.91900206802836    1.00317823172879
H           0.14066571148693   -2.82508466905170   -0.70875379671088
