    26
        -50.44989636  Gyration_radius:  2.48327374496 Dipole_moment: 2.560
 S          -0.44838230950421   -0.78969108447462   -0.25736174128565
O          -0.15520604837685   -2.18223385698048   -0.12467378454833
O          -0.38192559772960   -0.23729832281236   -1.57275587170393
O           0.49407226637424    0.02863058252569    0.66716074095693
O          -1.83946789186803   -0.51365589535866    0.34477633694699
H          -2.06442625405009    0.45191685001621    0.02318761845108
H           0.27823590455210   -0.22012066924384    1.63645983719435
O          -1.45974625998337   -2.78301010143849    2.11711604163877
H          -0.93701310000238   -2.79517736453327    1.29197108460740
H          -2.35903184054032   -2.57996395323268    1.84817878084654
O          -2.13279570097963    1.80152118532777   -0.55299129549893
H          -2.15671070457239    1.66065945779664   -1.50366753525012
H          -1.25109756940996    2.25450825469836   -0.37638752146292
O           0.28424157407325    2.69642720464654   -0.19451954297903
H           0.63563277485038    1.99657930179463    0.36638753563078
H           0.71991461328113    2.54971798632285   -1.06865280096876
O          -0.26854962034352   -0.60908939974641    2.99238812510852
H          -0.69168622025588   -1.49212267611289    2.82195546301034
H          -0.97283624602453   -0.01135504838979    3.25558203202535
O           1.37329839486555    1.71148734554192   -2.41829994134231
H           2.14726924069025    1.19033280419620   -2.14983047048040
H           0.66272578290868    1.05536449598811   -2.43765688041092
N           2.65732357974136   -0.55676959838480   -1.31901745805337
H           3.32277190108763   -1.24810487007772   -1.64425997841105
H           1.72894759711513   -0.95242790996326   -1.41811210302892
H           2.81444172408416   -0.42612469811918   -0.32697670093835
