    26
        -50.45617913  Gyration_radius:  2.50831289137 Dipole_moment: 0.807
 S          -0.28875127484588    1.34475064421708    0.71061223305803
O          -0.23079847020231    2.59262278518125    0.01063650419717
O           0.99525100254956    0.68254258246969    0.83319716009581
O          -1.26935586528177    0.38670982690308    0.01621584806346
O          -0.90453325105073    1.55209640239663    2.08101214629064
H          -1.09754880902923    0.62749927079049    2.50825241876669
H          -1.03835597905461    0.31011243068589   -1.00074562850632
O           0.85802148052561   -1.71096489419049    2.10562610656529
H           0.56009067253015   -2.22095460541618    1.31347411266681
H           1.15198865885746   -0.86070192493336    1.73814380369453
O           1.86402502568640   -0.40553825468759   -1.43057462974746
H           2.63702129958633    0.07330319875188   -1.73492920803400
H           1.63664656924202   -0.02962624365810   -0.55303507002688
O          -0.55541109909552    0.22521656485509   -2.37613187367542
H          -0.43319664022861    1.16179814291625   -2.65518502185135
H           0.35257881660161   -0.11825500743827   -2.23269153253263
O          -1.25656643627714   -0.69586127880825    3.13800931834435
H          -0.45522271908273   -1.20319511049410    2.77963468507464
H          -1.12547367871133   -0.61584481256039    4.08553367100928
O          -0.05657615167220    2.82153143417131   -2.63265564422196
H          -0.02873418616906    2.87385310072061   -1.65560879567941
H          -0.70077432809071    3.47286387798184   -2.91542323177582
N          -0.06217767759425   -2.57860610555812   -0.27710826319235
H          -0.31599403607293   -3.50002050056629   -0.60923260205811
H           0.64274418794366   -2.20307300276480   -0.90156234835271
H          -0.87889711101853   -1.98225851097200   -0.34546414817250
