    26
        -50.45498717  Gyration_radius:  2.47632975711 Dipole_moment: 4.396
 S          -0.40441776203000   -0.33535828452430   -1.70569283591174
O          -0.04080069299087    0.69156749079177   -2.63022906798656
O          -1.56451388847247   -0.02068455989360   -0.89884225714014
O           0.77267290810175   -0.63229635308424   -0.74475729832312
O          -0.58404458147577   -1.66097334089799   -2.41661834045209
H          -0.51362270386320   -2.40503056851183   -1.69548392535554
H           1.00393964848358    0.22117548023289   -0.20961376461625
O          -0.27976796768138   -3.28822369224816   -0.53072512605541
H          -0.76987020004983   -2.81250985652661    0.20787793077383
H           0.65532839060629   -3.18068574506286   -0.33755845082560
O          -1.37225119836872    2.17295614594287    0.58063346596538
H          -1.95050433203084    2.04696282325272    1.33543571109009
H          -1.58109308359651    1.45062621462989   -0.04599790095887
O           1.60761691214561    2.67099675250218   -1.87545240736822
H           1.08780602567177    1.96274863840666   -2.30287566472120
H           1.14264144917644    3.48870964817255   -2.06391587507917
O          -1.38957252552495   -1.71672520610209    1.19922371764068
H          -1.62559691303474   -1.06053836597443    0.52259993438529
H          -0.67829178618493   -1.30853175924372    1.74638497462499
O           1.20687934030194    1.52847603741194    0.48055034174162
H           0.29649111227378    1.87542762731065    0.62894022438153
H           1.55232262987366    2.05125454692405   -0.28041317764227
N           0.64495308915045   -0.55159180451273    2.62898316250149
H           0.35341535308769   -0.14787936695480    3.51059807710788
H           1.05787244048953    0.18698554863531    2.06917181999171
H           1.37240832592622   -1.22685804073064    2.82777671226624
