    26
        -50.45350618  Gyration_radius:  2.4999701654 Dipole_moment: 3.191
 S          -0.98733222236364    0.33849435083670    0.80934517570163
O          -0.53302348269071    0.07407119717915    2.14116756289478
O          -1.50377447046277   -0.82053295754722    0.11683571548544
O           0.16408873818965    0.93349811057322   -0.03144460092604
O          -2.00663446749339    1.46479045257103    0.81321492902993
H          -2.01163426931574    1.88240000065793   -0.12858107605076
H           0.93324457526335    0.23000697424745   -0.05114179689836
O          -0.09335669322843   -1.30704988909932   -2.13336179918148
H           0.81260729727638   -1.26153856379953   -1.81473190579369
H          -0.66794981247609   -1.25518149363855   -1.34825463655763
O          -1.36507505001827    0.69130775069218   -3.35156739883078
H          -0.80610137788398   -0.03148546334733   -2.98459534040025
H          -2.14122100072853    0.26343354757484   -3.71708685809430
O          -1.79357220302498    2.48378679671285   -1.47973118375634
H          -0.93453192224119    2.90888931975116   -1.41396350029650
H          -1.69059780637094    1.80084115011726   -2.19693506272293
O           0.20394813204499   -2.51867874764502    1.31397020774060
H          -0.58117829049848   -2.20499518921105    0.83638903909163
H           0.13902330611668   -2.10317020489073    2.17927833005390
O           1.90811523082776   -0.86002738178788    0.10994868951072
H           2.35546975837100   -0.49061236578263    0.91369674897265
H           1.39439097897490   -1.62656146782920    0.46220531353270
N           2.37302403101310    0.23391655006494    2.50026457759945
H           2.73671495336261    1.17621194485694    2.56608515629427
H           2.73537996397353   -0.28971244351693    3.28752102994699
H           1.35997611337767    0.28789802225024    2.60147269365947
