    26
        -50.46108252  Gyration_radius:  2.46409380497 Dipole_moment: 4.775
 S           0.07451645675687   -0.95045277042192    1.14896858617287
O           0.61495619067538   -0.65983113322184   -0.18916985026526
O           0.00587437447569   -2.37133989655085    1.37944947225710
O          -1.21816270938545   -0.27953223482478    1.31703533933675
O           1.05991198457009   -0.32368519902461    2.17062818908524
H           0.84045077010553    0.65328061077001    2.14838624601493
H          -1.97602285085928   -0.34787143333117    0.07914576065422
O           0.59409753374171    2.20513787259835    1.95963668904284
H           0.75460920852828    2.42960105138782    1.00414807372274
H           1.19526307791813    2.75366696733681    2.46774173568692
O           1.24037005270010    2.61589023745824   -0.55994550249966
H           1.99755103176340    1.99723784357870   -0.51869408554547
H           0.59743389348857    2.20576864024790   -1.15366073662595
O          -0.33677796687291    0.73894301453260   -2.11571617419795
H           0.13373533455422    0.47906910218982   -2.90994851019854
H           0.08405799554953    0.22124692598514   -1.37471095672014
O           2.95641763501619    0.55871768939583   -0.09477061276816
H           2.16203165673149   -0.01206530971326   -0.16451044970071
H           3.28618402513030    0.42274716802004    0.79531508369393
O          -1.51032208654573   -3.07966334441329   -0.64054024751996
H          -0.85624729702659   -2.85920102392288    0.06849193059997
H          -1.99194805111506   -3.84088689854124   -0.31030723007082
N          -2.37537533514910   -0.57376328864039   -0.91677087945907
H          -1.79715604281751   -0.02451721901481   -1.58395709047208
H          -3.36329776528471   -0.36076030959970   -0.99456869465216
H          -2.17215110663414   -1.59773706225826   -1.01167609555432
