    26
        -50.46932518  Gyration_radius:  2.52738808994 Dipole_moment: 4.999
 S           0.81929369432629    0.58952196181196    0.06571961995580
O           1.20023132665229   -0.65306769637838   -0.61058733911890
O           1.37651182762361    0.66335616261552    1.39846153670535
O          -0.65404792397768    0.69178498953868    0.10792628766715
O           1.35300057438360    1.78097978468043   -0.73794601225882
H           0.96254411368997    1.75764078859759   -1.67609734212989
H          -1.11946537913337   -0.16718300253567    1.27406457428351
O           0.08644291864299    0.98843086096519    3.66230827804346
H          -0.14559531588086    1.91422066553622    3.75095166991685
H           0.70142119442024    0.93854848323332    2.89241090114898
O           0.30930650063898    1.60735381938255   -3.06287711854921
H           0.52890655557452    0.70658735114226   -3.35008563275372
H          -0.65307612520095    1.55258518356980   -2.86934702827104
O          -2.01620374090902    0.60432197590893   -2.21654436711424
H          -1.67411419496893   -0.22389245388258   -2.57462179432774
H          -1.65073856614113    0.66847449784207   -1.31508274973277
O           0.99664491674642   -2.16241551932318    1.52161610622196
H           1.68500653294704   -1.79059017638812    2.08030137391389
H           1.12272480288358   -1.71445727530684    0.65240260763646
O           0.16576930017680   -1.14481509205400   -2.96703616472664
H           0.58769518208734   -1.92920456905456   -3.31940550032270
H           0.55194464812219   -1.00775690801688   -2.07084851705180
N          -1.17024071434966   -0.78844775507997    2.14641164744938
H          -0.39651677882920   -1.49937158378666    1.99903638222970
H          -2.08075271234776   -1.21500674464308    2.27711398750314
H          -0.88669262714239   -0.16759773836671    2.94175459370236
