    26
        -50.45195929  Gyration_radius:  2.49217811597 Dipole_moment: 4.905
 S          -1.16335100191493   -0.98221051381020    0.32847254171077
O          -0.09359025251055   -0.28375947796336    1.02412657831083
O          -0.71790076276940   -1.86476992172736   -0.69770314745162
O          -2.13736898865773    0.07228357717386   -0.21454964002455
O          -2.01717243731985   -1.72549065448706    1.35210617795917
H          -2.23225517234390   -0.99149661829789    2.04102191307426
H          -1.67983259880483    0.72633217485746   -0.88945895454158
O           1.83253061291189   -1.85646363179798   -1.66619864353949
H           2.27287194590245   -1.74019627973803   -0.80417885381574
H           0.91710812433248   -2.09209245758097   -1.44648417105853
O          -0.91280553402777    1.66360821186334   -1.71320065603193
H          -0.34626499399716    2.12090909464673   -1.05463664669196
H          -0.25893417730488    1.16251453857662   -2.24171733088640
O           1.43144236434086    0.58259695600411   -2.50052051867399
H           1.83310898616666    0.67553731425245   -3.36505001329081
H           1.59660178311402   -0.36284509682374   -2.22421171619463
O           2.51240902539414   -1.06399457039732    0.86707790720364
H           2.97221665508952   -0.22750545387231    0.96781938632787
H           1.57158429774356   -0.87944428955158    1.03038704945347
O           1.13344281834747    1.93132231060879   -0.01600261092522
H           0.76391907353772    1.17208038824540    0.46364853785692
H           1.58507849794919    1.55833345852429   -0.78706167185853
N          -2.25626971254980    0.36176487878473    2.80531568874357
H          -1.31039709011196    0.64840341265870    2.57788750155702
H          -2.39158856727225    0.39943105293924    3.80696987160368
H          -2.90458287524703    0.99515159692182    2.35614142119798
