    26
        -50.47135818  Gyration_radius:  2.40976376646 Dipole_moment: 4.535
 S          -0.08000377865823    1.67989896854123    0.51120318196585
O          -0.15390863518265    1.80756615253318    1.93571970187801
O          -1.29140697150391    1.11187574721401   -0.08564554008676
O           1.09718336278076    0.93756428866023    0.05465302481027
O           0.06674469005267    3.12540601492137   -0.10130437984393
H           0.20743750265769    2.97017805107988   -1.03952237879774
H           1.67603270063934   -0.62857691311787    0.57424783024617
O          -0.19236098159145   -2.46533525758192   -0.67318823990553
H          -0.90468329575213   -2.26430420756329   -0.02000637025470
H          -0.41508230981305   -1.35062350183088   -1.59549723191054
O          -1.80679735197962   -1.30964351376577    1.09698644038056
H          -1.81638751515710   -0.40708207761461    0.73847703473519
H          -1.25157193402891   -1.25461501314098    1.89137171719901
O           1.72207643157835   -1.54437062530735    0.89990740353987
H           0.63760691014757   -2.27470668189319   -0.16738278812500
H           1.30502233455325   -1.50307881000642    1.77178954152268
O           0.08522195684083   -0.60618097637184    2.99108778786815
H           0.02837565261441   -0.53558504244892    3.94559667794182
H           0.04216988657625    0.31403138211591    2.64704585891057
O           1.08172724554859    1.66681747565650   -2.38824899191952
H           1.94329161740576    1.92878855811646   -2.71758409264156
H           1.22355107116430    1.34446366081200   -1.46096269682833
N          -0.72448978703553   -0.42175179071026   -2.11840893807723
H          -1.48094362979045   -0.60652804844702   -2.76827171670411
H           0.05122108678796    0.06268790824400   -2.58192893237792
H          -1.05002626885973    0.22310423191717   -1.34013390352418
