    26
        -50.46300505  Gyration_radius:  2.42091366406 Dipole_moment: 5.805
 S           1.11524136970257   -0.51242662354486   -0.80010696104682
O           1.08148493283346    0.05682255306889   -2.12136723935736
O          -0.19384592876259   -1.02924917933773   -0.38450054944280
O           1.47879125566867    0.60854853227381    0.23658046242812
O           2.16215124331464   -1.51048828156251   -0.59016169187727
H           2.30019595608077   -1.49982419410491    0.81596004774957
H           0.82826331484412    1.39033076065160    0.13638485853339
O          -0.30665190174413   -1.87111451447654    2.10632468535574
H          -0.34303799496170   -1.78123164278136    1.12637117646223
H          -0.93078339714132   -1.21310160898590    2.43205012420299
O          -2.67613679272009   -0.10307917490644   -1.53422508048045
H          -1.95190441125396   -0.72116149061309   -1.37698898335044
H          -2.27944337603455    0.62318362951440   -2.03368165294676
O          -0.82542191347351    1.77308170190680   -2.54775169002947
H          -0.62946005838885    2.26720778584778   -3.34502395220609
H          -0.11101307225410    1.09275245482986   -2.46356209674238
O          -1.86850185876607    0.50706873338991    1.05065697905923
H          -1.24156417916861   -0.05358789279442    0.55042485717659
H          -2.65934236236841    0.48927287166343    0.49372625563402
O          -0.28819367282052    2.41743066725399    0.03054320089703
H          -0.98175960428533    1.93458670700361    0.53119680343698
H          -0.56252597897827    2.37976968540164   -0.90664567128778
N           2.26066619115770   -1.35473712941570    1.92230707239321
H           2.93117341460967   -1.93895795725207    2.41152787776547
H           1.25551951604729   -1.58762902432513    2.18539634642031
H           2.43609929887685   -0.36346738869474    2.07456482124968
