    26
        -50.46050778  Gyration_radius:  2.39461154421 Dipole_moment: 7.684
 S           0.13810883594104   -1.37928791574418    0.78470631332728
O           0.56923647275629   -0.98426668051309   -0.56970470846848
O          -0.54081902608005   -2.66314614782882    0.73912046659490
O          -0.76157244360432   -0.34626664638436    1.32985025227589
O           1.37699632451662   -1.47178190837576    1.66409119706423
H           1.83241843339226   -0.53013241447785    1.69492438882425
H          -2.16768782591213   -0.74677230277321    0.76159043318894
O           2.40592148006388    0.76448618864674   -1.15812200180491
H           1.74911789050162    0.05252677595369   -0.96586882622093
H           3.09179132621452    0.36829547605788   -1.69666807478798
O          -1.48225429810227   -0.34109969017281   -1.98948558227027
H          -0.66134736163423   -0.58603423088609   -1.47976981486230
H          -1.32421188535068   -0.61163774191159   -2.89568286331264
O          -0.04015617325716    2.23590793515201   -1.18746352139109
H           0.86111578012608    1.90784398223623   -1.31222682747175
H          -0.63181533609882    1.52198556906700   -1.44882501226548
O           0.14245093122155    2.17989138567045    1.56818030243399
H          -0.32670858841800    1.33021636920682    1.63036155365876
H           0.04439776990912    2.44743039380883    0.63570411800378
O           2.39369940282556    0.82630724070555    1.58755633502513
H           1.62450441478912    1.44344807139156    1.72628565947328
H           2.62989727050926    0.93751014370979    0.64932577040648
N          -2.68862701346176   -1.43215861214507    0.12498666658001
H          -2.55081418122129   -1.06678172365944   -0.84159733310094
H          -3.65728216371944   -1.60467145817243    0.37071013433910
H          -2.02636005592239   -2.25181202855584    0.27802099476755
