    26
        -50.47393308  Gyration_radius:  2.40335964668 Dipole_moment: 4.922
 S           1.16538430053497    0.50114564455774    1.08500467678870
O           0.49392244079355    1.57438702427380    1.77768683999379
O           1.24336243358957    0.74964243699979   -0.36629025527105
O           0.54571871395465   -0.80001462147668    1.33216845361749
O           2.62698082651595    0.44181393975931    1.60804890095845
H           3.05669575231667   -0.20142472266789    1.00647783041578
H          -1.13323762353313   -0.89790597592105    1.37489362833781
O           0.87653776104714   -1.68563115162825   -1.09840903032234
H           0.72265577285019   -1.87811316012357   -0.15544679096265
H           1.06073537309138   -0.71337479483740   -1.04805764625599
O           3.53041527153197   -1.13955951362841   -0.33538877305686
H           2.76516154605623   -1.61877392783946   -0.69386313030474
H           3.74767740625289   -0.46073663920998   -0.97936588792401
O          -2.08606589013239   -0.81837530964258    1.13888830112477
H          -2.28858890795472    0.12429988579582    1.26995756399095
H          -1.98663773417233   -0.99847950128901   -0.40444765782483
O          -1.04197908199753    1.60531787602072   -1.41428372090830
H          -0.12159677200595    1.45027408423671   -1.10788023255304
H          -1.51214368187391    1.91964947941211   -0.62221765898234
O          -1.98020021936668    1.92139929534461    1.14187227706402
H          -1.03133303447365    1.82726635761532    1.42899413189672
H          -2.34301795406532    2.63290435521087    1.67166352467768
N          -1.68227226995506   -0.92938118092278   -1.43406433957311
H          -2.36669913498580   -1.31590318007995   -2.07312871994667
H          -0.75302580030893   -1.40686802995043   -1.50810605166747
H          -1.50844950384899    0.11644134988340   -1.59470622345391
