    26
        -50.45153544  Gyration_radius:  2.49294807563 Dipole_moment: 7.534
 S          -0.25898962580465   -1.42564104706397    0.10453725071245
O           0.84074101656059   -2.32890296525470   -0.03451787251275
O          -0.80280730125736   -0.91508748789995   -1.12649166392057
O           0.17332695678918   -0.22225846266970    0.97722431782723
O          -1.35039741312725   -2.08959850112783    0.94512858595773
H          -2.10278581401143   -1.41340676953356    1.02622836808282
H           0.15087281135115    0.61573735206436    0.36086478799972
O           1.35509319650948   -1.30577496849739   -2.73609704182320
H           1.75166170192643   -2.05052817467756   -2.27638858922476
H           0.46955687383401   -1.21246790506538   -2.35040762534077
O           0.06690525837111    1.61355806515016   -0.71891438736420
H          -0.48709529701304    1.07161578496392   -1.29858944608793
H           1.00327744289592    1.51604711208513   -1.09466494908431
O           2.38321378229251    0.93838788961392   -1.60555943595463
H           2.79657424348217    0.46052328658050   -0.86135008191879
H           2.12885760645155    0.23183737494590   -2.23243584528628
O           2.98796562113289   -0.73473635476214    0.46745550695632
H           2.34018853221957   -1.43659685946481    0.28361953766484
H           2.75051011408921   -0.38182028564262    1.32695448949727
O          -3.11225336085106   -0.27262315081052    1.22494124122264
H          -3.60817288071407   -0.41418207798457    2.03434835504676
H          -2.65317868064960    0.61484649024590    1.31611652041850
N          -1.86741947438498    2.06394419685339    1.54589865689859
H          -1.17810801178829    1.94847065973700    2.27888388284361
H          -2.41981450195498    2.88601742799443    1.75701636638082
H          -1.35772280650411    2.24263938011238    0.68619905104932
