    26
        -50.45854371  Gyration_radius:  2.56793943521 Dipole_moment: 6.595
 S           0.40099088283648    0.23277690147559    1.05087198649937
O          -0.17031285577716    0.98910122907934   -0.05995794087629
O           1.64743150214236   -0.40626305628785    0.70637935737958
O          -0.64661914018804   -0.89005421100942    1.39961050559226
O           0.44929945608865    1.03884676030888    2.27163383453871
H          -0.90265819910249    1.06290169516393    2.69828841053816
H          -0.40938464384287   -1.65591150084954    0.77375660803912
O           0.20156018376429   -2.54303859612137   -0.31797507811221
H          -0.11078456718053   -2.02696002241234   -1.11210771680912
H           1.10848296827324   -2.25038570397752   -0.16596772839482
O          -0.48889297195725   -0.75061130071537   -2.08814518966862
H          -0.38987233325417   -0.02136691843549   -1.44865285253876
H           0.26425792955319   -0.64484534932613   -2.70567823362041
O           1.77078904282902   -0.16700715698582   -3.46450999779505
H           1.65829278642105    0.63536355321002   -3.97644894575238
H           2.31652987998568    0.08577914671051   -2.68921862638678
O          -2.71645801121042    1.08500662232592    0.37168222168881
H          -1.76396905743864    1.17480386045493    0.10438894595867
H          -3.02308126717387    0.28945957095615   -0.07054350739992
O           3.15671083839281    0.55443083352279   -1.26269065420937
H           4.00423079369401    0.14133165722143   -1.08752219697568
H           2.57198967652800    0.28549842554687   -0.52438894522809
N          -1.99728028014573    0.97647619090032    2.89085335754745
H          -2.33416089412560    1.72287788064183    3.49080114383072
H          -2.16440946420861    0.06218539819792    3.30113369621235
H          -2.43268225492061    1.01960410041484    1.91440753595989
