    26
        -50.44706693  Gyration_radius:  2.47429357935 Dipole_moment: 1.799
 S           0.61895747460439    1.31376850833221    0.11403021532741
O           1.57585185867350    2.00698069787470   -0.68667568550295
O           1.17484485016803    0.63227130003585    1.26196515183852
O          -0.13661849742987    0.26383166153706   -0.74396255861588
O          -0.50303922740227    2.23016435362943    0.58178354220455
H          -1.33178356139698    2.13699488334068   -0.04605140314658
H           0.41046353889550   -0.57903177081265   -0.71168283516578
O           1.59296224954470   -1.57900915957097   -0.33179951423795
H           2.27983474643066   -1.20120335733279   -0.95195277437403
H           1.76700701389631   -1.15516709475485    0.51938664575938
O          -2.89377110225630   -0.43763014105344    0.33360929369205
H          -2.37014332005711   -0.33726706251276    1.14637858370308
H          -2.49057523070534   -1.20592497439004   -0.09791029844323
O          -0.97561023334486   -0.45021614763502    2.34680181443327
H          -1.06461722946738   -0.14985256990675    3.25253875751231
H          -0.16094208001494   -0.03212820962279    1.99681856371218
O          -1.04714047325584   -2.53726983243141    0.30625006411206
H          -0.15626079644126   -2.57288398934490   -0.05647393610917
H          -0.96613540171502   -2.12458523408147    1.17440255532018
O          -2.56045438646233    1.87710608801407   -0.78845674220864
H          -3.27851504702334    2.40439629277455   -0.42897551793190
H          -2.72298721095380    0.93429987548605   -0.48207924156512
N           3.19835594040839   -0.08467143857778   -1.80953830637868
H           2.74157128013520    0.77255140554554   -1.49398714805883
H           3.11582662996809   -0.11947718968782   -2.81809914619125
H           4.18291822519620   -0.00604690486177   -1.58632007967960
