    26
        -50.46248823  Gyration_radius:  2.46584908119 Dipole_moment: 3.808
 S          -0.08278004854363    0.62896585389016    0.68664734585384
O          -1.47638913742950    0.82835457124924    1.03742793847613
O           0.44030422311784    1.71470521328898   -0.13210253386888
O           0.12956685819844   -0.67187343750033    0.03607713945838
O           0.76832403441139    0.61351275139087    1.98438877062248
H           0.56577687101931   -0.28342773842344    2.38147848792085
H          -0.44522624213958   -0.71372491740947   -1.61466295369280
O           0.00562824762144   -1.77430068861114    2.52235955655971
H          -0.92679738137832   -1.63982197726999    2.79815496304577
H          -0.02979010090344   -1.87233995063815    1.56042415518586
O          -0.60305664945917   -0.33885978899240   -2.50523284522086
H          -1.31639358331118    0.32166534962366   -2.35273341641743
H           0.63734848667776    0.45383974978424   -2.58256132464454
O           1.48657844099688    1.00916957395919   -2.28730282170817
H           2.13911270820885    0.27590301455547   -1.87070692169468
H           1.11998674189690    1.45450531029720   -1.43170156328388
O          -2.49439918491349   -0.87734282244444    2.80181399760708
H          -2.84398730013693   -0.36300551335813    3.53127927731945
H          -2.24761356230447   -0.23170742461493    2.10652504223242
O          -2.12510263003487    1.57301535081275   -1.45179275523384
H          -1.68790666112712    2.42641166356577   -1.49842668398226
H          -2.05517566686292    1.30193814864101   -0.51713527343423
N           2.72117851360262   -0.77817540071902   -0.98957427546532
H           3.44086904942623   -0.46453005280028   -0.35172565737017
H           3.01638171754178   -1.65024766283690   -1.40864010858635
H           1.86356226553676   -0.94262918563653   -0.45227754954514
