    26
        -50.45174140  Gyration_radius:  2.57016279374 Dipole_moment: 6.875
 S           0.74725638718909   -1.27455654141591    0.25473442162528
O          -0.57958592935422   -1.51386157685882    0.73364160806631
O           1.49333613729386   -0.30373372427252    1.03313597905216
O           0.73283868611329   -0.81774402820857   -1.20324797719211
O           1.52487121902746   -2.59093623652802    0.19580703187630
H           2.44834615924788   -2.29116313350864   -0.12731867258390
H           0.41422760596916    0.19962040954491   -1.31954227148808
O          -2.57540731507470    1.27279748503831   -1.88495703463524
H          -2.82396801304100    0.50627494185812   -1.30741389965644
H          -3.19450856520038    1.97436830066161   -1.67792214924156
O          -2.07939935348831    0.36365706936973    2.20367234377335
H          -1.56294279995104   -0.43447007022464    2.02714399830902
H          -1.48460961413695    1.09596251203718    1.99290193206527
O          -0.02322387887278    1.53985004971943   -1.36281596260707
H          -0.04452881332970    1.83747424721574   -0.43242612721832
H          -0.97261582985358    1.48046902896624   -1.65674313069733
O          -3.10256939925362   -0.62731150263929   -0.13181672216543
H          -3.07274734290046   -0.17422084983012    0.73156911115321
H          -2.34988664872949   -1.23140658116306   -0.09321377555263
O           0.11688572634923    1.91270998580793    1.32851389842450
H           0.65755931400351    1.08885822831598    1.32720176126623
H           0.62235552552550    2.57167159024049    1.80788940409268
N           3.63423577627447   -1.35302214394726   -0.55897670781012
H           3.50783462654763   -1.06927364742348   -1.52159257572229
H           4.60795295471222   -1.57715937291887   -0.40221880164217
H           3.35829339486208   -0.58485445981184    0.04399430857477
