    26
        -50.46163237  Gyration_radius:  2.52090661451 Dipole_moment: 9.774
 S           0.36983947317377    0.78162595600970   -0.63214574618853
O           1.69879009094292    0.23799335347727   -0.65223859517981
O          -0.10673339716553    1.04458673936035    0.73439311218604
O          -0.62671145839730   -0.25566174569801   -1.23908494371685
O           0.19026508574217    1.96987199135403   -1.47404740599360
H          -1.17703907999931    1.96796379535631   -1.72777861786432
H          -0.43153140986408   -1.17306692029314   -0.79043023625529
O          -0.07681662167631   -2.40281452472280   -0.07002986562704
H           0.03182157303681   -2.11550075937506    0.85557356815767
H           0.84287903820587   -2.59029766739488   -0.39908886152551
O           2.44363830683812   -2.43562345116096   -0.83956992442024
H           2.35856595550026   -1.54318930928088   -1.20323876522322
H           2.87617293428860   -2.28414476700214    0.02135227213412
O           2.99256306809609   -1.05900808908768    1.45931724782612
H           2.20596272121755   -1.18077359477573    2.00553267832245
H           2.73853503841699   -0.39222257569590    0.80353167304514
O          -2.47425494779564    2.08588304364992    0.85313588560224
H          -2.37034328896309    2.93495429205897    1.28674715118366
H          -1.57831146836500    1.65401204027692    0.89316146076179
O           0.27937071049991   -1.04020529329587    2.26897140681118
H           0.17319277531766   -0.21079782969068    1.74461194468754
H          -0.31119985648397   -0.96668088327024    3.01995230823992
N          -2.29124172897744    1.80109033720498   -1.75814045791440
H          -2.77366576577882    2.38004796865169   -2.43714175795833
H          -2.59340482127269    1.98507910948303   -0.76250623490421
H          -2.39034294653823    0.80687878385458   -1.96083927618631
