    26
        -50.45256228  Gyration_radius:  2.52688166727 Dipole_moment: 1.403
 S           0.80478773163955   -0.16893583021660   -0.87318496291024
O           1.46489294952107    0.88979986105930   -0.14976210621617
O           0.67670429760785    0.07361376779875   -2.28218858962907
O          -0.58019012014879   -0.41849030594377   -0.25989690324629
O           1.54917164200360   -1.46928015463042   -0.59813368047238
H           0.89390682012948   -2.26264567919428   -0.51961920372933
H          -1.19095270956915    0.44764924142006   -0.34243266611832
O          -0.00073696719173   -3.40204436197085   -0.19257246460330
H          -0.44993045716082   -3.01895303661726    0.62144487002788
H           0.52832542755174   -4.14252853170751    0.11326882319350
O          -1.88307561574795    1.68401869430752   -0.48818026366939
H          -1.31311357855995    2.30549637679899    0.02336557074967
H          -1.71841982268463    1.91226575724019   -1.43282927118347
O          -0.94014182105017    2.06331916051019   -2.93925895560189
H          -1.39211422134444    1.81424207766325   -3.74742487118048
H          -0.25439887637422    1.37700956852988   -2.79092989922834
O          -0.96112487178652   -2.21162742588563    1.90706948891882
H          -1.59724712787677   -1.61800773539434    1.49991274041377
H          -0.18674412231254   -1.63282477464384    2.13872199612009
O           0.12261821413309    3.09772649594439    0.53009550767218
H           0.72033177862924    2.34134632782754    0.36652751531698
H           0.40118588690011    3.78894104436602   -0.07427651047126
N           1.11736678126999   -0.54607025111270    2.35071659358234
H           0.91478853022184    0.16391236641386    3.04454299504050
H           1.29381120706121   -0.06802968554744    1.47082197706800
H           1.98029905529289   -0.99990296700167    2.62420227024157
