    26
        -50.45612479  Gyration_radius:  2.43692467986 Dipole_moment: 2.663
 S           1.30583964350994    0.11045074137642    0.03782495905547
O           2.03072160834803   -0.93116478805263    0.70586816955539
O           0.64842357496150    1.04574326144934    0.93013516025904
O           0.23141641615627   -0.52197183783013   -0.87362687004855
O           2.18911063819841    0.85381818278675   -0.93042703120991
H           1.67120946570568    1.77046471117229   -1.14377594296960
H          -0.41483243478713   -1.07736756810013   -0.28750394069588
O           1.02273475323860   -3.43306255587444    0.53966812718886
H           1.47880204107609   -3.93278421655529   -0.13867954380131
H           1.50948006879635   -2.59310243149012    0.63658108816748
O           0.81512254786838    2.88079512983922   -1.23601747812516
H          -0.01991286019344    2.50704394866376   -1.70211779358408
H           0.56719086851087    2.99327025495961   -0.31185224714857
O          -2.07125858919436    1.00456893547705    0.44251494756623
H          -1.15482854780208    1.11582110727703    0.73948082553660
H          -2.30372993679118    0.09019710021512    0.62512614870617
O          -1.16526501212613   -1.88778688612274    0.72487838464671
H          -0.65042739769532   -2.71209029892801    0.63722374518162
H          -0.88475252569835   -1.52733558982961    1.60229166293647
O           0.05462475403439   -0.78972205876588    2.80924591236463
H           0.29162113827501    0.02991179732157    2.34341088940981
H           0.87365309769251   -1.28561871804327    2.89203428070827
N          -1.29803882589584    1.73722599066953   -2.21784262246139
H          -1.81075182682846    1.54288313530124   -1.35553050076609
H          -0.98627815114955    0.84706292082574   -2.58577276012133
H          -1.92987450818751    2.16274970225789   -2.88313757035570
