    26
        -50.44937478  Gyration_radius:  2.56621665076 Dipole_moment: 3.442
 S          -0.65866622193098    0.66979512695051    0.30568794179192
O          -1.96201337708167    0.69773675499053   -0.29359969121579
O           0.17924836403993    1.79941534297611    0.00870999748593
O           0.06983329760859   -0.61680413806887   -0.13856009117884
O          -0.75273734866621    0.54891465671440    1.82882016949863
H          -0.78587428519121   -0.43377807713643    2.13020191244295
H          -0.53574813411185   -1.09204200134241   -0.84339093534885
O          -1.04747119148980    2.39239945318580   -2.32683705041957
H          -1.91742768657688    2.20588814028779   -1.95974497364233
H          -0.45528807120429    2.36920485556363   -1.55637694024087
O          -1.51902765520210   -1.47523355489029   -1.85666811917553
H          -1.18527294194260   -1.00039098187803   -2.65891543989594
H          -2.22653335018715   -0.91654434039077   -1.50561539075921
O          -0.53457872626029    0.15139085595047   -3.69433485091755
H           0.40172207154675    0.15446632240094   -3.89734448098845
H          -0.73541552967310    1.03081822476957   -3.29667930417031
O          -0.61781874287841   -1.84657387073281    2.58888763033428
H           0.32514010755240   -1.99105970588936    2.27304936883595
H          -0.59278657838644   -1.88600901102022    3.54761372835395
O           1.82276319632059   -1.90995961166705    1.69881125147317
H           1.65327328218638   -2.03327396829358    0.76110248447178
H           2.05554369452740   -0.94744959023050    1.78682192075627
N           2.24979998159135    0.75199224541666    1.78029884135692
H           2.00122172882746    1.15241515474634    2.67688750057300
H           1.59501704654630    1.13105100919736    1.10021818864270
H           3.17309705013560    1.09363067812805    1.54095633203668
