    26
        -50.45268565  Gyration_radius:  2.50081238295 Dipole_moment: 3.606
 S           0.92266218862129   -0.68470542847362   -0.17838136386136
O          -0.37158776806117   -0.23768517107106   -0.62260670953676
O           0.88173750610980   -1.63727705341874    0.89670148831957
O           1.76702191698873    0.53665014300150    0.22796492895703
O           1.71046841998440   -1.27655021294217   -1.33633924270303
H           1.74293833557151   -0.56458586302707   -2.07627688737140
H           1.19435701740239    1.20060627792272    0.75503968357763
O          -0.70992971347787   -0.12481470681438    2.57096141681961
H          -0.07131242544267   -0.76158116582605    2.21805506398003
H          -1.55599858641246   -0.34183109424961    2.10565457052103
O           1.61760785225160    0.52887856573280   -3.10458702789133
H           1.11456901914659    1.27905023914744   -2.65782994528105
H           1.04936024392144    0.20081114631415   -3.80566010709099
O          -1.25934833869036   -3.33607417105306    0.97216685046068
H          -0.43609132466702   -2.82586361469747    0.88541033933079
H          -1.16332707792948   -3.87003514370753    1.76305654500274
O          -2.59159189622334   -0.92242339051528    0.88298279945807
H          -2.02656871020441   -0.59422382780539    0.16855591048833
H          -2.40958834755195   -1.87751780928269    0.91267033735600
O           0.27806031847608    2.04540106167095    1.60373927407391
H           0.76338074005265    2.46899158250144    2.31574775360244
H          -0.22575463253852    1.28264976419947    2.03014227336575
N           0.12002135049518    2.28064305649282   -1.81959518396856
H          -0.59556135766796    2.84404441935464   -2.26163770809699
H           0.59268924012408    2.85959984288021   -1.13717891688381
H          -0.33821400028135    1.52784255365448   -1.30875616262614
