    26
        -50.45268573  Gyration_radius:  2.50082623672 Dipole_moment: 3.605
 S           0.20278123501480   -0.44942270298933    1.05278963897693
O           0.07143696752452   -0.66714212495407   -0.36414052148030
O          -1.04762625127357   -0.32101959947316    1.74910398173920
O           1.07364464540255    0.79678441912652    1.29389588157244
O           1.01508663474689   -1.56444569408959    1.69211730378461
H           1.90978975224814   -1.61401237044383    1.18953428709030
H           0.81676135907492    1.53795598904945    0.63709515791404
O          -2.42957896032266   -0.38011244328698   -1.51558397272437
H          -2.89728465711347   -0.97521254929158   -0.90455886879148
H          -1.49359087999259   -0.58824792127470   -1.38145781562726
O           0.27898700288029    2.58059172274327   -0.30993360529660
H           0.31510040331344    3.45485926291658    0.08538379899329
H          -0.68797117586733    2.29728784881563   -0.26245472517282
O          -3.16857084945757   -1.74047488090945    0.76758793472162
H          -2.39731889620075   -1.33283502551517    1.19721804123755
H          -3.92832872251424   -1.51491489832429    1.30767868020426
O           3.12408289741183   -1.63926014272856    0.29885686451779
H           3.00426054646225   -0.88754352282550   -0.36159056548972
H           3.09152790064755   -2.45389072013097   -0.20847409504937
O          -2.08422104879043    1.66497261942627    0.13518053601590
H          -2.34736098963581    1.05322281893674   -0.59687223516883
H          -1.88946762089722    1.07817491998835    0.88058746035814
N           2.52248836498104    0.24153582682908   -1.45129677487764
H           1.53074539806093    0.03274586928971   -1.34861089584265
H           2.75565841349879    0.19335993524094   -2.43527574740423
H           2.65896851078833    1.19704337386986   -1.14677976419061
