    26
        -50.46247240  Gyration_radius:  2.42013785408 Dipole_moment: 7.257
 S          -0.50465210001615   -0.58051975586370   -1.17495503735164
O          -1.54244040947543   -1.42483608045958   -0.63859521811272
O           0.83526731545234   -0.99937897037791   -0.77595085106820
O          -0.69813702366404    0.87840530745262   -0.60301387471996
O          -0.59053152921142   -0.36387667999439   -2.61869082037734
H           0.25160939608527    0.77382967428145   -2.76162035839991
H          -0.24896258266522    0.98731269787009    0.28170491793034
O          -0.17378545488348   -0.78345065282378    2.85309836389242
H           0.10930489872635   -1.58915584891484    2.36785116144572
H          -1.11481021156236   -0.67504328683995    2.61624434779385
O          -2.57436686458995   -0.49100474671716    1.61719950234278
H          -3.38377864730393   -0.98061526383310    1.77063056228852
H          -2.23782250218104   -0.79210649870811    0.74570864193736
O           2.32139133104175    1.11266626370477   -0.60905384112976
H           1.97020299736451    0.19038010938546   -0.64196400830611
H           1.98960586174561    1.44444877993420    0.23778406944857
O           0.59728992920159    1.31344813261151    1.60058706414014
H           0.41195563949694    0.46775458823946    2.13107971774961
H           0.15692917444575    2.01212131717822    2.08815491328473
O           0.23217099348379   -2.78947512495391    1.10897960161787
H           0.64905150115343   -2.23286236963779    0.42611429302764
H          -0.65138308178085   -2.94965109071538    0.76341096950913
N           0.90273591497773    1.67673556871660   -2.73065607361057
H           1.45391011281507    1.75441795442717   -3.58000346510733
H           1.53548292011166    1.55233705297072   -1.86420407103655
H           0.30376240124558    2.48811893308681   -2.60984048719269
