    26
        -50.46437167  Gyration_radius:  2.44637000253 Dipole_moment: 8.381
 S           0.17495543285237    0.38137399970271    1.09814249124327
O          -1.16473041059153   -0.18777555127001    1.00571273094761
O           0.24461147120494    1.73314718653270    0.58662880245617
O           1.10474823158441   -0.52350171708547    0.22346939408933
O           0.73764491556829    0.23141739401898    2.44031013922759
H           1.01293071065526   -1.14819817083843    2.48761659493362
H           0.79123020703261   -0.46568560241192   -0.76278616618136
O          -0.76881083444617   -2.72030356310325    0.69614295301273
H          -1.09234802664349   -1.79073088447100    0.82417073790803
H          -0.56885053293766   -2.79160228591638   -0.24083651742362
O           0.27829497331022   -0.29560717173773   -2.13553100567819
H          -0.70288650810351   -0.14482279279621   -2.01346980485564
H           0.64706889327064    0.58349171410052   -2.33879684328229
O          -1.57282215054264    2.90560839986021   -1.13085946513879
H          -0.90283600026840    3.12353158513197   -1.78584361547200
H          -1.07673905021389    2.63758273568124   -0.34029573150882
O          -2.16888632944921    0.27717884795024   -1.44520993892108
H          -2.02256817192991    0.07837269474349   -0.50304278276414
H          -2.19205217425297    1.25390556213590   -1.48290309619291
O           1.25784430378652    2.22457870265186   -1.82293047057224
H           0.95039508664450    2.10134123034724   -0.89842379028988
H           2.18430101886692    2.46084928579981   -1.76952462356113
N           1.19012414185122   -2.24747477086186    2.37793485453086
H           1.11265888946643   -2.72522680218815    3.27055036394784
H           2.11030217992347   -2.37878019623217    1.96847259418089
H           0.43641971334810   -2.57266984975077    1.69130220536649
