    26
        -50.45219853  Gyration_radius:  2.66767981246 Dipole_moment: 4.972
 S           0.82336128774429   -1.78351718475903   -1.16132717819372
O          -0.40732454784882   -2.35696357870149   -0.67254652578721
O           1.78159634880495   -1.50818500466639   -0.10618810780417
O           0.56080407038054   -0.54022473287490   -1.93299605680798
O           1.46016492896648   -2.79169762593831   -2.16141463032139
H           2.18327748102442   -2.27212621333532   -2.56566581400595
H          -0.46504777299738    0.32875771649712   -1.39605773528185
O           0.89840127380086   -0.08059616726727    1.82453855245371
H           1.27984026938504   -0.61897500108317    1.07169798011062
H           1.44883333179662   -0.28370506396289    2.58219007966851
O          -1.16660511109724    0.89465861392476   -0.86399621025713
H          -0.62049221172556    1.58977841006627   -0.27196521774100
H          -1.51899174831132    0.23329131048764   -0.14795569844988
O           0.02246411384330    2.28475581448725    0.83577162438858
H           0.55511709337858    1.56395345142986    1.22425761825526
H          -0.76452416941695    2.36769953204579    1.43279358336456
O           2.85767444725924   -0.79996979469175   -3.19980552399938
H           2.07880845870147   -0.41587774986254   -2.75281283627910
H           2.73003498046059   -0.65869291851986   -4.14071498686855
O          -1.60789815534143   -0.76764498239782    0.99778912459904
H          -1.32999566952491   -1.53596288336117    0.44334261127421
H          -0.80959986409091   -0.56315834919272    1.52231750200601
N          -2.25951984202031    2.00593280343015    2.24749291647732
H          -2.23880917436415    2.11700635445852    3.25338249294582
H          -2.46319037270430    1.03192428422677    2.04717735882472
H          -3.02837942611060    2.55953896956182    1.89069504743413
