    26
        -50.46460531  Gyration_radius:  2.52909445577 Dipole_moment: 5.766
 S           1.05046962899171   -0.77375877693187   -1.00973778898130
O           1.31751877785048    0.43920845908728   -0.24322093944471
O          -0.02012352769861   -0.56782775566485   -1.96751234734613
O           0.78050144502651   -1.91234159574301   -0.13584280565832
O           2.36307683468429   -1.08024747854817   -1.79617270330762
H           2.20918374347114   -1.98804918605678   -2.12184006202596
H          -0.62331060947426   -1.56223915557145    0.80807624253103
O           0.62203411291572    0.40517361513492    2.29526186405829
H           1.09773308981474    0.36447168414709    1.43363786553018
H          -0.04129967222927    1.67921457343859    2.18006471942677
O          -2.16060037989093    0.38813677140535   -0.93814775257314
H          -1.36180990803542   -0.02311840135588   -1.37639565038345
H          -2.90203073766570    0.17745142612310   -1.50799930192467
O          -1.31406674796094   -1.07489010050841    1.29832211828524
H          -0.11999276790720   -0.23653913362101    2.16266785197510
H          -1.78388727635217   -0.56001060375499    0.62361030830004
O           1.56313447374346   -3.59753641637200   -1.96940314238343
H           2.14752405298473   -4.25550904801855   -1.58589307832968
H           1.09689262441385   -3.17261490815437   -1.21920962046568
O          -0.37401321144349    2.42052883348845   -0.65229327942944
H           0.36751980390183    1.77052699785221   -0.64947103578307
H          -1.14854989454859    1.88555159832336   -0.90515633293137
N          -0.58002440686747    2.62287277737369    1.91472911061805
H          -0.11317812080026    3.43021083559034    2.31245755936361
H          -1.54455740657726    2.57745674114198    2.22551325803731
H          -0.52814393051444    2.64387826647362    0.82395495283374
