    26
        -50.45760693  Gyration_radius:  2.49479918272 Dipole_moment: 2.740
 S          -0.31991084981200    0.21251254325297    1.36941882777792
O          -1.46996597100576    0.80552965243079    0.71475635255672
O           0.89982081262154    0.98011045398451    1.14856286122934
O          -0.13872681781404   -1.18325144230791    0.93378162699030
O          -0.56175956958325    0.18621946747801    2.89940042516567
H          -1.40993399336742   -0.33202594843726    2.95378501502965
H           0.87123326543541   -1.56892415148711    0.02834365212251
O           1.59098901310286   -1.75564479547992   -0.73298443665367
H           1.07531376132288   -1.58100881159400   -1.61731518916443
H           2.27481587152348   -0.99026247073144   -0.62874838906634
O          -0.87849300982023    0.97953029845848   -1.87249699456314
H          -0.16183863432117    1.63474467045276   -1.80053898509806
H          -1.22183564944430    0.89126691928895   -0.95855153025269
O           0.21420964577657   -1.18182015643139   -2.76822992581813
H          -0.49663385621564   -1.79649100170645   -2.95623357035205
H          -0.22570619524808   -0.32431111958964   -2.47913876097431
O           2.99559557531323    0.31531070032184   -0.31739388394191
H           2.40681489474843    0.57711722948724    0.42277951375522
H           2.85215360537456    0.99159142184324   -0.99017362989254
O           1.18694093176767    2.53591637320371   -0.98098708275513
H           1.01508447199784    3.46170540544959   -0.80425240309089
H           1.02813506106458    2.06171977471247   -0.13536180663760
N          -2.72904807555264   -1.13641525988207    2.33796663578429
H          -2.78738169784693   -0.47156709041295    1.57168732926988
H          -3.65778188002069   -1.31388625146262    2.69886157700693
H          -2.35209071999986   -1.99766641072536    1.96306273157826
