    26
        -50.46404616  Gyration_radius:  2.45963502501 Dipole_moment: 6.112
 S          -0.71033808167925    1.04393377601813    0.12921467899109
O           0.15416266866010    1.09615765756139   -1.07331819815968
O           0.05087847158645    1.32423045310034    1.32787676548693
O          -1.91007246990726    1.82307820314618   -0.03648184976469
O          -1.20054941162363   -0.44277825215319    0.20110060944098
O           0.84051016095029   -1.87013503828782    0.55059804752971
H           0.99772701171148   -1.68122448247591    1.49432620699028
H          -0.38592760153339   -1.05753199767143    0.35272070611958
O           2.79152612083674    1.21077069714063    1.62633955402704
H           2.74979630313273    0.60732842386817    2.37428858407368
H           1.87837903574216    1.51664414090015    1.49773795023658
O           0.84055069030261   -0.61746184674082    2.95982161729925
H           0.49922854947638    0.13783990595290    2.43215872321839
H           0.20874959528652   -0.76026723120679    3.66513722178422
O          -3.34800071234552    0.25853381851099   -1.48930583975474
H          -3.66826688168350   -0.36784334686925   -0.83568128112137
H          -2.89776967600209    0.96962822850836   -0.95388013723088
O           2.46606375932529   -0.21192755713685   -0.65104047929458
H           1.74382832445882    0.37257594232944   -0.94254566027366
H           2.86635056533772    0.26879839594067    0.10124065275150
H           1.55199530997770   -1.36928846241129    0.06164792549061
N          -1.10194402461943   -0.47715914217136   -2.59452105876543
H          -2.09698415012976   -0.27314041301331   -2.23631006991639
H          -0.81738055467481   -1.42237749809431   -2.35147581165898
H          -1.01770020756226   -0.31490999993845   -3.59324765006148
H          -0.48481282503132    0.23652564518766   -2.01640118743890
