    26
        -50.45840267  Gyration_radius:  2.43827198793 Dipole_moment: 7.436
 S          -0.01226526527059    1.17792127780259    1.65031692284097
O          -0.63924846061977    1.45460440167627    2.89684538253644
O           0.43062054062519   -0.21963563975276    1.49876915944123
O           1.10844990881625    2.06881581595331    1.29705625241855
O          -1.10905524396940    1.40860483788415    0.53971323660514
H          -0.74354132755070    1.30751327883728   -0.36359435912039
H           1.78462030231774    1.62360123961970    0.15737590437737
O          -2.04577104636936   -0.87068970366538    2.16312452084610
H          -2.27471727577291   -0.03001484932281    2.57103930048001
H          -1.08358424914014   -0.79770434509016    2.03367132067885
O          -0.21471202027046    1.11366320617431   -1.98321388242808
H          -0.93247024373963    1.43040831154200   -2.53314537985437
H          -0.26519674299167    0.10164884864172   -2.01028408768511
O          -2.52418300531184   -1.55585828469934   -0.38194032752616
H          -2.39920892439720   -1.21002061113610    0.53120920426394
H          -3.00896853933066   -2.37653944307701   -0.28332636602376
O           1.96538911880392   -1.39233685555419   -0.15434717765840
H           2.48888649164400   -2.04268519713801    0.31544548225261
H           1.35311646984140   -0.98837632470513    0.52813156985757
O          -0.29338693137504   -1.44319289058637   -1.85119817950108
H          -1.11476842711343   -1.55286060540126   -1.31927349431880
H           0.45060342006186   -1.65276115062346   -1.26818389706867
N           2.20689939408701    1.21562222143284   -0.80188150737408
H           3.05933240451132    1.69394725643126   -1.06943709755502
H           1.45896112838753    1.34082699626018   -1.50113479354832
H           2.35419852410768    0.19549818855063   -0.66173769698974
