    26
        -50.46298427  Gyration_radius:  2.51610899327 Dipole_moment: 7.376
 S          -1.31866677058260   -0.25181697362693    0.88525291389106
O          -2.25807554166647    0.76024723970433    0.40887736089102
O          -0.37014243444254    0.29222304187520    1.84981418184391
O          -0.62060571125460   -0.86590790701666   -0.24546158982163
O          -2.16033398238919   -1.34470518999311    1.58335467056311
H          -1.48231399687419   -1.83350412322086    2.12711454618577
H          -0.20206011319893   -0.42143310821143   -1.80888699752866
O           2.05444665857265    0.59936162348537    1.00236513371829
H           2.44568216926627    1.20713580111205    1.63240116669855
H           1.10958650588398    0.48982338389595    1.29079711644222
O           2.09318899839332    1.42449718190274   -1.55682795363995
H           2.05233928524974    1.13749412220402   -0.61699095937235
H           2.93212357077005    1.10410416123553   -1.89300042588530
O          -0.10595768967390   -2.17981409586262    2.89686700623466
H           0.53270107833408   -2.43774318780377    2.19350145995351
H           0.03842745741408   -1.23151862769461    3.02212228632158
O           1.46769337553326   -2.20373346614383    0.73063194162554
H           2.05549248112332   -1.44826635500824    0.84944686420172
H           0.70188930229984   -1.84094895364500    0.24323907692973
O          -0.01312381008112    0.15271213710676   -2.58515806358895
H          -1.12685407463673    1.07126007840560   -2.34869975494283
H           0.80166863359551    0.64297130276319   -2.32532725462513
N          -1.96751778727862    1.67791382606715   -1.95907504291302
H          -2.12482674450946    1.29913289808530   -0.94670700539964
H          -2.80908998658656    1.53793081055611   -2.50809005049419
H          -1.72567085313286    2.66258437998512   -1.92156064740259
