    26
        -50.45309855  Gyration_radius:  2.44284052102 Dipole_moment: 3.688
 S           0.85483665881142    1.23935753690642   -0.42770865208479
O           1.26011476516574   -0.11101362616876   -0.75071138873612
O           1.47337421859454    1.78120928762095    0.74447447838010
O          -0.68267517736641    1.26298796245859   -0.24216144887778
O           1.07374084166474    2.12570271886638   -1.64195532022616
H           0.71567988069919    1.55297825451553   -2.43325851081306
H          -0.88821567668833    1.36821378809690    0.75678536379240
O          -2.10012378902813   -0.17394048328894   -2.23193639777685
H          -2.24239911373200    0.58691181854508   -1.66240050282271
H          -1.82763257774253   -0.89898406722862   -1.61515776322438
O          -0.22886418281920   -1.12330880987082    2.64081050136361
H          -0.19150696439839   -1.52308513629369    3.51144181532893
H           0.70126014294658   -1.09000749580410    2.30815287534377
O           2.22030672305451   -0.75615113335640    1.66957939039801
H           2.46993002744314    0.15198384284611    1.86979860979886
H           2.01092007377939   -0.73395673799068    0.71937800581565
O           0.20012156974687    0.46958141039946   -3.30543541972784
H          -0.73356977638411    0.24519415380598   -3.01745485840356
H           0.74269180992351   -0.26678654175755   -3.00557628593921
O          -0.80682831858865    1.45322075970329    2.26374282077816
H           0.08075543633514    1.83540591296150    2.26352439939357
H          -0.70424800384909    0.50232830581659    2.50455710221595
N          -1.03689925816407   -1.87072901027057   -0.40855749158735
H          -0.12536195115470   -1.43389088023308   -0.51896915981245
H          -0.92276516158332   -2.86712081349193   -0.54703014388420
H          -1.31264219672022   -1.72610101681341    0.55606797131289
