    26
        -50.46386009  Gyration_radius:  2.53774322642 Dipole_moment: 1.474
 S           0.79194607768783   -0.56821083128031    0.55229895200423
O          -0.50419350653198   -0.30351827859522    1.19790361938034
O           1.64696442561897    0.61218855530279    0.63955838400039
O           0.62240302703074   -1.00703494343347   -0.81633234060998
O           1.49532777268183   -1.68681699136798    1.36252250534530
H           1.04539220602639   -2.52423176902673    1.08347372075246
H          -0.13668424061197   -0.12971427067654   -2.03805983796536
O          -2.04225190148226   -2.40893159602399    1.39652892737399
H          -2.35490779621180   -2.38677897866946    2.30292199512896
H          -1.51284862588742   -1.58466380709841    1.27555438626724
O          -1.71223666531870    1.51918835132151   -0.19484681457532
H          -2.64095183185700    1.48104471609956    0.03996398718077
H          -1.26499696830290    0.81588231392231    0.34548441644180
O           0.39107984914176    3.19656631387484    0.42416403544566
H           0.84578711090230    2.51079044373338    0.93385395183725
H          -0.49297661157199    2.82978359413484    0.25327584881600
O           0.13459012407161   -3.85148518827786    0.84248477060198
H           0.21649425594923   -4.49795938026265    1.54696283817168
H          -0.76068054067399   -3.45155609720828    0.92359127407646
O          -0.46298278671489    0.67648110102150   -2.50063496206697
H           0.79987957688173    1.50312831025316   -2.13598793832510
H          -1.12762743673674    1.04058404596567   -1.89113245898311
N           1.59564016456863    1.96214271964510   -1.57401519742838
H           1.20298178695367    2.77512179109057   -1.04344075565864
H           2.40516652699384    2.19694617608799   -2.13597140373315
H           1.81968599738942    1.28105370947272   -0.79012190347344
