    26
        -50.46506316  Gyration_radius:  2.61381771247 Dipole_moment: 4.708
 S           0.58519072010159   -0.53257197470279   -0.71243363855474
O          -0.71564095041672   -1.16548863151302   -0.48947656090102
O           1.34791282051134   -1.35484484606201   -1.77661189255266
O           0.43101564809008    0.83229511183832   -1.20104236677445
O           1.38196528773738   -0.57259062902577    0.51256228126466
O          -2.02842947555106   -1.33266673468235   -2.78191666674645
H          -2.18098234642484   -2.26837641428165   -2.92414798470774
H          -1.63308170455907   -1.25307256224840   -1.88637501410592
O           2.34676845649647   -0.24169650955590    3.13223171137916
H           3.17869034598509   -0.62480322771070    3.41294273851658
H           2.22410489359831   -0.50892599748933    2.20938917958927
O          -2.10337816657123   -0.64956859541721    1.69572849902624
H          -2.27297080733043   -1.50453314736652    2.09471288525494
H          -1.67819773288414   -0.83859338783209    0.82630264660666
O          -0.11252581319277    2.87311510044948    0.37395888729328
H           0.01466488828389    2.15433148967763   -0.28965335405520
H           0.55222858225240    3.53377798812394    0.17283865546613
O           0.18472021780710   -0.12781006784156   -3.69552259157437
H           0.18604542204038    0.61089757687833   -3.06709740518563
H           1.00133126399931   -0.98612737835280   -2.64448977057540
H          -0.70845246735072   -0.52512162158831   -3.61699159114652
N          -0.01051459330973    0.91829757493630    2.16603732062751
H          -0.93240219331275    0.42729004656760    2.22348157062713
H           0.57933287403267    0.32645870060248    1.51176327496200
H          -0.11414437269453    1.84618122755976    1.69471006100495
H           0.47674920265513    0.96414689905105    3.05909912526358
