    26
        -50.44702638  Gyration_radius:  2.63208390441 Dipole_moment: 5.247
 S          -0.63954481043123    0.61005044450299   -1.00771969075280
O          -1.46922411697010    1.40890966789235   -0.16009135056388
O          -0.83656689609672   -0.81811005978660   -0.87099420061485
O           0.84450651701978    0.92218773709911   -0.74850683150315
O          -0.83970230178917    1.02783144438175   -2.45519841521466
H          -0.22821379577031    0.47702690619546   -3.06852148415698
H           1.06856474042741    0.82733730952744    0.26395850700502
O          -0.74547802535356    2.39971652321793    2.19595026556065
H          -0.82555700515597    3.35461914264743    2.19722900764510
H          -1.14006190381871    2.08556371352180    1.35622722246251
O           0.61933226834469   -0.45112923377997   -3.90164898775932
H           0.03351061067594   -1.08053509849209   -4.32848875806966
H           1.13933878465415   -0.96225975739088   -3.20996541990529
O          -1.69399455154089    0.14482323964299    3.71940807425425
H          -1.50043379125436    1.03064369910353    3.39322563872925
H          -1.36005240397665   -0.45833481898193    3.04488325511562
O           1.23071151366812    0.64079278874691    1.71493471141959
H           0.66008749171479    1.34314072840237    2.09000406327522
H           0.77825742412810   -0.19619977135449    1.91801037183943
O          -0.47557793260407   -1.48288759375253    1.66539165485344
H          -0.72808080542671   -1.28821412484874    0.73917126200195
H          -0.76463770099145   -2.37750352321046    1.85414134656484
N           1.68630683497482   -1.72345500093146   -1.85933191134848
H           0.80956616541229   -1.64168675482250   -1.34847740231406
H           2.35704309785901   -1.11630029550013   -1.40560087444437
H           2.01990062229135   -2.67602731202029   -1.78799001407873
