    26
        -50.46557523  Gyration_radius:  2.40195347882 Dipole_moment: 5.466
 S           0.59426887214708   -1.17692605771333    0.93078829671935
O           1.42863540805264    0.02889336626035    1.01118737336630
O           0.99538958565944   -2.03481831253387   -0.14805025494334
O          -0.82148712870409   -0.79279823654804    0.86573472964487
O           0.79516463556885   -1.95534430672765    2.26878242171590
H           0.43978910792952   -1.34527278455125    2.93971523571470
H          -1.53317294970561    0.53651606799513    0.04079807842420
O          -1.17659656999907   -2.10836216908073   -1.70478532431986
H          -1.83166962450450   -1.96469023962524   -1.01753338100713
H          -0.33483714215202   -2.22119119615454   -1.22272221815523
O          -1.65803407737228    1.34433078777067   -0.49964890867191
H          -0.43147686138615    2.03558230639191   -0.18080402508954
H          -1.44449354243991    1.04211325953628   -1.43024473235089
O          -0.65514302627096    0.34938390429999   -2.67375524312445
H           0.29215034217331    0.38056574426685   -2.45353026122224
H          -0.91400362269396   -0.58672392996901   -2.53550742568642
O          -0.74102497305391   -0.07380797664778    3.37854448195536
H          -1.51218102523359   -0.34984910882662    3.87880206294401
H          -0.96168780577169   -0.19691609819595    2.43249714558592
O           1.91895369836072    0.26024046761838   -1.63624874658673
H           2.24050935670706   -0.54587842867463   -2.04634106619005
H           1.84316093739562    0.04034102522487   -0.69022568891888
N           0.62263337378346    2.31693619906622    0.06719745076584
H           0.69450188142700    3.15644262562621    0.63111316655492
H           1.16286111045153    2.39712948653773   -0.79233541120374
H           0.98779004962869    1.46410360465331    0.58657223407929
