    26
        -50.45130318  Gyration_radius:  2.46811464084 Dipole_moment: 0.977
 S           0.14184981799069   -0.93174257536773   -1.17997598709805
O          -0.09649748059545   -1.26101530334885   -2.55261178157680
O          -0.93712767907260   -0.17426647627034   -0.58096520189106
O           1.45328696757981   -0.12115096595426   -1.03775842121972
O           0.42809982246175   -2.17260994125828   -0.36650439082213
H           1.06910200727746   -1.92574295987108    0.44784583735417
H           1.31621398241037    0.81690136638236   -1.35830246485065
O           1.87678787599950   -1.60376139334803    1.56141968546636
H           1.40879692793010   -0.84489562717612    2.06474894318282
H           1.90128679396509   -2.35032812420707    2.16466745415018
O          -1.18974622505979    1.11798597819219   -3.08121993921291
H          -1.87150333251571    1.09543721846930   -2.40348808973205
H          -0.85057395472935    0.20285071585284   -3.12501018474228
O           0.90986176411675    2.22388236144485   -1.97073619905110
H           0.07469008041831    1.94982653702165   -2.43824187185846
H           1.52209447308139    2.50959600077675   -2.65221372572323
O           0.51956767492856    0.16938362254765    2.78978831805835
H          -0.35299858126495   -0.27981433054325    2.70730230045024
H           0.44396887699827    0.95982325316899    2.22431082840034
O          -0.03970468149507    1.97076319796193    0.81424975420746
H           0.46876969524697    2.44830911814106    0.15354038213058
H          -0.48049316458058    1.24862071146965    0.33517417148861
N          -1.72763106987130   -1.16836183342456    2.03754865321776
H          -1.59334152213958   -0.86683343191751    1.07406099001091
H          -2.63410951199068   -0.83266930036340    2.33857299107277
H          -1.76064955710473   -2.18018781840225    2.03379793855930
