    26
        -50.45308616  Gyration_radius:  2.50667718826 Dipole_moment: 3.487
 S          -0.71231726181007    0.39934415712284   -0.62456127263379
O          -0.38479096959281    1.68147198886160   -1.18933898105113
O          -1.95502824828643    0.37017894289327    0.09942189313831
O           0.43408409450519   -0.06453540224871    0.28177341734059
O          -0.76072681460466   -0.67512328505363   -1.70853335473584
H           0.16035674130182   -1.11900956692768   -1.83720799733889
H           0.73260267351000    0.71833153136470    0.95484495118516
O           1.79633553372816    3.06311665744727   -0.50803496263043
H           2.52163240974327    2.76844352718272   -1.06096794014474
H           0.98539463027608    2.66323323907384   -0.88147887863502
O           1.41820605647755   -1.91487238034618   -1.91453246646957
H           1.39206059631180   -2.30429599325128   -0.98689840593253
H           1.29385614534054   -2.65002133979551   -2.51929476057573
O          -1.43668913692764    2.70603304021226    1.33652026776633
H          -1.82840473354740    1.88019938497046    1.00308571321904
H          -1.35457741532078    3.27791157703308    0.56848277073261
O           1.07024367485586   -2.81767045134118    0.49343636538694
H           0.07768794550500   -2.77824325796232    0.54133302767672
H           1.36747891770840   -2.06293279191062    1.00846091676307
O           1.04114905346834    1.84724670934330    1.73201431638224
H           1.50577370764389    2.41065839413678    1.07180019298652
H           0.14635591821284    2.25381691731998    1.82745369103769
N          -1.60507508994510   -2.47851572861945    0.58168803847391
H          -1.75577761160756   -1.47836073960351    0.47272614838961
H          -2.06008342381749   -2.76378805109017    1.44082192835067
H          -2.08974738312351   -2.93261709882512   -0.18301461866518
