    26
        -50.45852403  Gyration_radius:  2.50901352872 Dipole_moment: 1.938
 S          -0.30511664597387    1.05368406154830    0.89947498821019
O          -1.34892332049542    0.05589468893323    0.61249993101588
O           0.17690959584821    1.66502058287770   -0.32957351671521
O           0.77856330184564    0.44944893073691    1.66244420452574
O          -0.95792440496073    2.17183673430484    1.74539448389981
H          -1.22863759816398    1.66668353433047    2.56201830146561
H           1.59795076691392   -0.74775219406694    0.84296924492142
O           1.86872724616089   -1.37218676834967    0.12809369442072
H           2.19525783029428   -0.78670390602249   -0.58658720165743
H           0.54949996327748   -1.89657822194349   -0.20989895992905
O          -0.99166619823011   -1.56704983223954   -2.80857133136881
H          -0.68801912567180   -0.62088704495900   -2.90060027565028
H          -1.93271232786547   -1.56437695997257   -2.99205527401801
O          -0.19067768123696    0.91747732032424   -2.87545627498920
H           0.75440029824061    0.91355570208809   -3.05966005213672
H          -0.26363346498516    1.27738070381620   -1.96935501977993
O          -0.48574441055562   -2.04800722280118   -0.36663628919707
H          -0.91759400184000   -1.19506080063719    0.08508727978850
H          -0.67363561258520   -1.94089308603063   -1.37385089981082
O           2.40029440238658    0.75713130920988   -1.43650746255886
H           3.17131583242731    1.25233259943887   -1.15609430827270
H           1.62971907140263    1.17686130852552   -0.99075610325600
N          -1.32757550749928    0.34582344654417    3.55752517970038
H          -0.39451132996931    0.04807095800483    3.28782702887635
H          -1.98844707897613   -0.27716123819959    3.11087706703194
H          -1.42781959957882    0.26545540443040    4.56139154574181
