    26
        -50.47086748  Gyration_radius:  2.41859289003 Dipole_moment: 5.114
 S          -0.23952458323507    1.39690445226621   -1.08380735725319
O          -0.64327770561293    0.88933839406698   -2.36272201680012
O           1.12497462515696    0.96814452600740   -0.73049417364051
O          -1.16446577996845    1.04167069821147   -0.00575392455703
O          -0.20338450276616    2.96205637390839   -1.14646951133886
H          -0.06463693807836    3.22317863525285   -0.22288661236124
H          -1.79926839859937   -0.56204891146081    0.16410646234942
O           0.55413259808978   -1.90314993902933    1.63596661735840
H           0.78853576151780   -0.95420763459849    1.81342500497018
H           0.86527021776574   -2.40197875814302    2.39240791035621
O          -0.97526349700369   -1.76841988522160   -2.27781985393045
H          -0.98748076060869   -0.82020470034411   -2.52159302723615
H           0.37084349004144   -1.82526297809754   -1.60481419594722
O          -0.37972795294202    2.89234688626844    1.58632515248150
H          -0.79515323711900    2.12445998450591    1.12355471930037
H          -1.09701220603598    3.40563869055519    1.96279625850659
O          -1.90455261337699   -1.53078473831950    0.20506840519720
H          -1.22539418987412   -1.82872614266221    0.82370212510762
H          -1.54133384202178   -1.82861268880255   -1.47390982058567
O           1.34382612647736    0.59636071197270    1.88299187170721
H           0.85044450108776    1.33355073951007    2.25851683287224
H           1.37685541470019    0.79319594195100    0.92270082886259
N           1.25292204930708   -1.63100983201645   -0.99113574504775
H           2.09310638416480   -2.04872746538882   -1.37451252822757
H           1.07162514242438   -1.94916849633744   -0.01948220680915
H           1.32793986487386   -0.57454384467063   -0.95616123522351
