    26
        -50.47086749  Gyration_radius:  2.41850620491 Dipole_moment: 5.114
 S           0.28441640941228   -1.00190726138795    1.44859971978108
O          -0.43679455498568   -0.40692263480665    2.53586446146550
O           1.35034492312302   -0.11615620471645    0.94881552987975
O          -0.58018532609905   -1.41013499385243    0.33969793591358
O           0.99870309430939   -2.29879180727621    1.96163183921807
H           1.33713942133346   -2.70741185600492    1.14982347346976
H          -1.83372188417706   -0.38082356476457   -0.27084551530829
O           1.10564669024943   -3.05876471595234   -0.66810697202510
H           0.34730042811089   -2.46904589464393   -0.43686101807757
H           0.73305517475578   -3.92149440171131   -0.85938275044527
O          -2.34963315200884    0.38364174599857   -0.58812188036260
H          -1.80834019166723    0.77676308336223   -1.28472057753545
H          -2.33775598712887    1.25555762254781    0.92152007079461
O          -0.16740828750836    1.42485359355659   -2.13202734544164
H           0.47829308478904    0.67636316376318   -2.03285589240877
H          -0.02907359713428    1.78375135487667   -3.00942675901623
O          -1.89327637682485    1.67812529116755    1.69238764512639
H          -1.51306223953180    0.93275827727739    2.20092580688396
H          -0.64582653782468    2.15325237871185    0.99535959622412
O           1.66341626478009   -0.40863986441674   -1.66490318103047
H           1.67605670188283   -0.30081341401992   -0.69008033047099
H           1.58877888376141   -1.35993407786816   -1.79655892964746
N           0.29231405623576    2.22113912325852    0.44059504563272
H           0.09561743889682    2.14654888954660   -0.57620052010286
H           0.82810939236848    1.34807003138009    0.71159509649453
H           0.81588616084933    3.06001612599280    0.66327545101083
