    26
        -50.45174173  Gyration_radius:  2.57071331883 Dipole_moment: 6.875
 S          -1.14236250087691   -0.80023115908672    0.54573569493475
O           0.02921616749104   -1.57650832919645    0.81426286323454
O          -1.47262236553797   -0.69130853779187   -0.86288096867875
O          -1.01408541888597    0.60856956853826    1.12305509481439
O          -2.33622101535335   -1.37824000546047    1.30853189471711
H          -3.10437150278040   -0.76754050333068    1.01881349122721
H          -0.35661506783906    1.23582956647935    0.55309298069034
O           2.67854866959496   -0.88626673368972    1.45194787033749
H           2.83416447536951   -1.28731310137849    0.57644810118570
H           1.76227347577799   -1.12213505524955    1.64600121745405
O           2.13698169574002   -1.92099872292492   -1.02166459089345
H           1.83583380415766   -1.20563650254251   -1.59781070897164
H           1.36588658829932   -2.14830184900019   -0.48442125703597
O           0.52876420987516    1.97182015014184   -0.26098435271390
H           0.68168118819962    1.41532917024130   -1.04939810612314
H           1.38564945824529    1.97602899958035    0.24603411358799
O           2.80204725081839    1.71233940503130    1.01265674265813
H           2.78190763307640    0.75802159788049    1.28069176905630
H           3.63609985073215    1.84438679011070    0.55957205850285
O           0.60763884269846    0.11509162923021   -2.24789378658998
H          -0.18924668166133   -0.26350133443099   -1.80901075397152
H           0.38235982598818    0.23067849715435   -3.17278960028428
N          -3.89631914803318    0.35549491631367    0.25394771463080
H          -3.70845655486300    1.25315023307741    0.68073179949450
H          -4.88092863535235    0.29080924740978    0.03194360748054
H          -3.34782422483644    0.28043207277103   -0.59661288874747
