    26
        -50.45380564  Gyration_radius:  2.50576638721 Dipole_moment: 5.570
 S           0.82012634545815   -1.35194726613541    0.21969063317441
O           1.16214908907128   -0.23256078858835    1.07948536057866
O           1.75182509650215   -1.58161225968619   -0.83611255740662
O          -0.58972398699029   -1.11594702817430   -0.34084680557286
O           0.66274167405288   -2.61739756218885    1.05298281333776
H          -0.13129107217009   -2.48344261930774    1.68086765604672
H          -0.81748512456456   -0.10922904105201   -0.46045872029771
O           1.57676067124220    1.94355415178895   -0.33550069385785
H           1.55099007926695    1.14263570715040    0.23427261147901
H           2.20440730461642    2.54849894913255    0.06287960376516
O          -1.08307016676074    1.31912466712545   -0.72521828377948
H          -0.22974515776804    1.77005822832849   -0.60566549412556
H          -1.19567515721329    1.23873039989049   -1.70938411116356
O          -0.95585887335934    0.72827431501488   -3.27376641195119
H           0.02487077375271    0.62476415936821   -3.22325131312627
H          -1.30512585199055   -0.14718317117587   -3.44824042111216
O          -1.25136172344755   -2.15175624391724    2.65467815439141
H          -1.40796535443929   -1.16438766623166    2.53853218503043
H          -0.93201986799499   -2.27886150634279    3.55082422215541
O           1.62033334723529    0.40304434360827   -2.68782630415920
H           1.75667999048827   -0.41933564414899   -2.18717290340641
H           1.77966401436388    1.11458249570327   -2.05191655888936
N          -1.32882701391473    0.45758596843455    2.29226141674728
H          -0.35849021956729    0.46033891731816    1.98238843414707
H          -1.43178901386434    1.14261980406440    3.03022322576002
H          -1.89211981196236    0.75984869001836    1.50627427226265
