    26
        -50.46576750  Gyration_radius:  2.52540013064 Dipole_moment: 6.551
 S           0.09009938225889   -1.26269572531605   -0.87307961619118
O           1.12921254240775   -0.73195521404229   -1.73398688278710
O          -1.18377742242675   -0.57048531186521   -1.04309022595861
O           0.51363145101188   -1.21475270784327    0.54008728126061
O          -0.09919297547031   -2.74515696934045   -1.25787739005545
H          -0.88086757525403   -3.08429599585957   -0.73819184105059
H           1.30143743041515   -0.01156324244801    0.91139965952565
O          -2.21778177732448   -3.44730494169442    0.06598984650255
H          -2.28250542919586   -2.67927412038965    0.69036993940202
H          -2.95878822911207   -3.36161611311655   -0.53780277498053
O          -0.66814356758261    2.03058367931555   -0.86025164975502
H          -0.95940177110401    1.10415128244364   -0.99262508496697
H           0.19860930485569    2.09528136123471   -1.27962593044631
O           2.11601145088754    1.60660559264107   -1.47072378084961
H           2.80665891388875    1.73824729957091   -2.12176504807614
H           1.73748831857337    0.69903250450322   -1.65589261185564
O          -2.09503434151257   -1.15827079974041    1.36245883689867
H          -1.97723399576265   -0.75155912289968    0.48092058575559
H          -1.19280559303095   -1.21286177626734    1.69941891918587
O          -0.20948050752073    2.53664502726972    1.67287618535219
H          -0.25328782114630    3.48495108728701    1.80127059724929
H          -0.54950543408485    2.36548538152031    0.75463178604630
N           1.81525993105350    0.92182294636923    1.11863079557081
H           2.14332180444127    1.28455783792896    0.19979383754567
H           2.58046522521303    0.77428116218660    1.76679722435460
H           1.09561067550235    1.59014685858343    1.50026733230184
