    26
        -50.46415475  Gyration_radius:  2.51974817368 Dipole_moment: 6.939
 S           0.00981892047703    0.58258886860562   -0.02609851590063
O           0.67266108210019   -0.03586251080780   -1.27945540031786
O          -0.90427823577500    1.62328573077619   -0.42869282603473
O          -0.65291877301447   -0.49056063532079    0.71611895459985
O           1.13762388076750    1.09515617369588    0.77364754089239
O          -2.87221593481755   -0.40112998367155   -0.75052729275164
H          -2.14676735018328   -0.54062853026306   -0.11264364191484
H          -3.02459108589049    0.54835396634326   -0.74461500889465
O           2.69866276573024   -1.05621882373873    0.33244339857202
H           2.62247220086408   -1.28038748900149   -0.59818152034346
H           2.25249763867110   -0.19219025283012    0.41471215608099
O           0.91232203189334   -2.19956635387583    1.95176679441807
H           0.17080894446326   -1.81711604198959    1.43129055780381
H           1.69443229502646   -2.07201671136912    1.37045696805505
O          -1.39112655148905    2.17803423517974   -2.98077531466717
H          -1.25699012228883    2.09032916168037   -2.01326025066171
H          -0.68731670673697    2.74618366959251   -3.29644089634594
O          -1.23462569605644   -0.50609648921073   -2.85118219342237
H          -1.96423667245465   -0.65136265557721   -2.20531400286643
H          -1.37432280966451    0.40393981733630   -3.18345370008595
H          -0.07219953718605   -0.27893635476620   -1.95242837271552
N           1.08720757910622    0.06591150650315    3.13036514994641
H           1.10109831936717    0.60236850107288    2.18934509037823
H           1.04042547937193   -0.98727163505212    2.79457353767796
H           1.92802220205347    0.26067523035096    3.66457319746967
H           0.25353614566424    0.31251762633591    3.65377558102967
