    26
        -50.45515774  Gyration_radius:  2.40979045007 Dipole_moment: 5.331
 S           0.35561723171368    1.35815402618437   -0.63332516255412
O           1.77689638175504    1.44207403309954   -0.70955672874133
O          -0.13676201947640    0.79937774282883    0.62094614296780
O          -0.21424719453977    0.52343182804559   -1.77888084638386
O          -0.28419176496142    2.72732679534871   -0.83460209682623
H          -1.24499002481489    2.60662285427541   -0.52461687171752
H           0.15581229677605   -0.51386414150588   -1.75155907739651
O          -1.13638619708444   -1.63199380292850    0.58136879388923
H          -0.77124601995645   -0.72167699725114    0.67224085498787
H          -1.05707628772861   -2.05035972037340    1.43978666306611
O          -2.56119226489988    2.11250340020448    0.10704721881704
H          -2.84068382893957    1.30729564284781   -0.39675343847246
H          -2.23409755913142    1.79089188819855    0.95249094676834
O          -2.84651836172703   -0.20033229121800   -1.16902918715424
H          -2.51824429128263   -0.89568663717687   -0.58173820462102
H          -2.13356798942140   -0.03402360088649   -1.79862991316656
O           0.55740868522620   -1.79527915675922   -1.52475696822404
H          -0.04048000069527   -2.06049377840494   -0.79982064872827
H           1.46998566491433   -1.66520191667897   -1.11698833941061
O           2.72881033367345   -1.08440732673645   -0.33589253925553
H           2.58497451508627   -1.07575797740956    0.63344622384373
H           2.67546577984203   -0.14864794484558   -0.59083819011111
N           2.01542331487860   -0.39695312490950    2.21245259591697
H           1.25985535758563    0.14821649322301    1.80228985036470
H           2.75628721822343    0.25403989571688    2.44275416817801
H           1.68314704496424   -0.79525617292515    3.08216472396872
