    26
        -50.46278404  Gyration_radius:  2.44953332973 Dipole_moment: 5.393
 S          -0.89989364631398   -0.46267649951746    0.65035565704685
O          -0.13894871950050    0.43956860477872    1.50791293336912
O          -1.31082931225769   -1.65866628577333    1.34381018902542
O          -0.12235761627282   -0.78147228328626   -0.56503216463296
O          -2.13505381647848    0.36115396203716    0.19814639996434
H          -2.54766648602940   -0.00338076364969   -0.64754128232757
H           1.28347779613752   -1.06309360983370   -0.11960490179130
O           2.08870396571406    1.52383647399415    0.81589733365971
H           1.20279393081512    1.18248537376475    1.11683309755944
H           2.35748061506989    2.17676236931279    1.46378546887118
O          -0.68172220142403    0.47457221730761   -2.88506084322097
H          -0.33860724601824   -0.15145636179387   -2.22415083741829
H          -0.56884540628036    1.33815078124876   -2.44935373892968
O          -3.08095444087597   -0.25553295903219   -2.10142814344196
H          -3.71623198504369    0.42692712964172   -2.32860356869875
H          -2.23623513700984   -0.02398975384430   -2.57526674291338
O           0.94324266473953   -1.96474374495437    2.61344870893879
H           0.86041008007589   -1.23615043347906    3.23429785341305
H           0.05122570376694   -2.01333864370836    2.18441559757859
O          -0.27991060577513    2.28184474982744   -0.85339469345916
H          -0.83063737819057    1.77861593860405   -0.24144509187499
H           0.62471463176810    2.20286369886743   -0.52948678789861
N           2.19850139718014   -1.14166956901338    0.44735222980774
H           2.52209280454095   -0.16422066566617    0.57373131417557
H           2.88902238758924   -1.72870469594896   -0.00737451955679
H           1.86622802003698   -1.53768501990892    1.37775654274915
