    26
        -50.46492032  Gyration_radius:  2.39745133707 Dipole_moment: 3.482
 S           1.34433709385757    0.38434258843506   -0.41806943136314
O           0.72756108237469   -0.16466395756957    0.79748758644944
O           2.42390620750966    1.28230953936676   -0.03992466943356
O           0.35068532162419    1.03092234199660   -1.26452073370410
O           1.93354466955366   -0.81966734038351   -1.20901432043356
H           1.20927728850217   -1.08200105265259   -1.85672530544721
H          -0.64488076339972    2.11165981846971   -0.42809666542097
O           0.45128713586117   -2.77170183800592    0.45569668039427
H           1.16542457278065   -2.98780110943453   -0.14866976336179
H           0.60980603530976   -1.83945664402713    0.71770301346177
O          -1.92413936862786    0.06835343918283    1.05027394968530
H          -2.25649060322913   -0.56051712415587    0.39761365831718
H          -0.96067667657188   -0.09325292598206    1.06533115284537
O          -1.85037391990141   -2.19122236576193   -0.75220380113861
H          -1.06393790040721   -2.48819360953280   -0.23308255774448
H          -2.41156107913222   -2.96053938899171   -0.85927124334321
O          -0.16866822427251   -1.16580444332229   -2.64762752256152
H          -0.25293902234293   -0.21149995455114   -2.48619032890575
H          -0.85597389143579   -1.57794904206075   -2.08707755887443
O          -1.10630587353955    2.49403522925629    0.35211511487805
H           0.05242401478076    2.53274163071043    1.25631678804482
H          -1.65618871091306    1.73931757203003    0.67042023815756
N           0.99966552381140    2.38577174687361    1.81876683086762
H           1.70312067112521    2.02689332919154    1.08754971718209
H           0.85928282326997    1.62635160701205    2.48207899671609
H           1.32181359325321    3.23157195415995    2.27912017499332
