    26
        -50.46734167  Gyration_radius:  2.42919425298 Dipole_moment: 1.196
 S           1.15377872671233   -0.18953683433524    0.69683439144721
O           0.14483375389280    0.76980275700151    1.14827546678544
O           2.19102807333441    0.45933267101739   -0.08947232227709
O           0.54120045620211   -1.29543848075077   -0.03505237926823
O           1.82662624871702   -0.78034124929141    1.96506605981312
H           1.08851209007887   -1.24473417221541    2.42964661221009
H          -1.03744685627883   -0.98480602902939   -0.60804005217899
O          -0.31983268609101   -1.75355777152041    3.14288719723942
H          -1.07670385542007   -1.35992858161252    2.66327677149202
H          -0.37333598060587   -1.43712893044019    4.04764411127872
O          -1.87458180194684   -0.63055384959351   -0.96646145225711
H          -2.40879709744405   -0.45321982239922   -0.18483017447891
H          -1.30468353737976    0.50648279700459   -2.15122943746300
O          -0.67228621088392    1.05205047465424   -2.67005954319018
H          -0.40104521214298    1.77690967660104   -2.06177114687718
H           0.52674683512445    0.17765108097156   -2.64133493491713
O          -2.15676761687908   -0.16873528491821    1.87440197038991
H          -2.62288185437354    0.52431416750174    2.34532495596237
H          -1.31117867597756    0.23808714790834    1.55743108761104
O           0.37039776243181    2.60282007081713   -0.75989926757953
H           0.19910506050764    2.02204232681149    0.00832137933896
H           1.32809254585631    2.64987292339256   -0.81051935112656
N           1.36886719524018   -0.47445911120970   -2.35714190756756
H           1.91687550420431   -0.81100555779943   -3.14079017777086
H           0.96879058186181   -1.23266091070049   -1.77551857662837
H           1.93468656125335    0.03674048210210   -1.62698928997746
