    26
        -50.45340652  Gyration_radius:  2.44822350012 Dipole_moment: 5.196
 S          -0.61510362885358   -0.72866643139539   -1.71990663812817
O          -1.85961135532081   -1.32793564914743   -2.05685259931520
O           0.08531892847090   -1.39288209936131   -0.62221398263850
O          -0.79239968442551    0.74708555723440   -1.32438521158604
O           0.31978644826690   -0.66024980472703   -2.91725236365831
H           1.26837343915749   -0.49307790527917   -2.54240669987740
H          -1.50476699581027    0.83604408232036   -0.54149228162195
O           1.18759091689817   -0.60585837725747    1.64716897942684
H           1.22982740618047   -1.41542339748463    2.15962238844760
H           0.80494301393593   -0.85953101941498    0.77962674069328
O          -2.25045969420521   -1.85222800368085    0.66048874946135
H          -2.81766802952614   -2.09452036397715   -0.07813422347093
H          -1.35294611394552   -1.87216014917811    0.28705679144668
O           2.52119467422277   -0.30981651923304   -1.74903221061976
H           2.35506166933111    0.53363689758865   -1.22155453662008
H           2.46072927558005   -1.02992380719699   -1.11503564957714
O          -0.51286964354900    1.29610108846331    2.51568980140196
H           0.15142153715333    0.62571197055860    2.24786354873668
H          -0.76725327011442    1.09294496833697    3.41700716532623
O          -2.33791337804958    0.81391661318711    0.61865740143905
H          -1.74618087667644    1.11860622323579    1.34465455302519
H          -2.46988726557187   -0.15265963889809    0.76126516737682
N           1.80296499844614    1.76138742253873   -0.28843194553198
H           1.79577205496725    1.47064974091255    0.68170448308036
H           0.83915714545856    1.81094855589772   -0.60338836777537
H           2.20491840799767    2.68790006597779   -0.34071905944133
