    26
        -50.45442978  Gyration_radius:  2.57457809043 Dipole_moment: 5.627
 S          -0.48384140378770    0.47283780469662    0.71408165572873
O          -0.40436167804472    1.46914717230093    1.78545719188717
O          -1.13499175407300   -0.74907060451030    1.17138205375206
O           0.85606623417640    0.19167857380011    0.19195911209001
O          -1.35728269624841    1.02655098164700   -0.42612345314301
H          -0.81733786235027    1.69134746827379   -0.96189524165428
H           1.87237481174795    0.24652872387178    1.55184237760967
O          -1.54405949952592   -2.21104205490204   -1.03646698098118
H          -1.48695264863775   -1.63378386302176   -0.24906859940497
H          -1.59859175163232   -3.10800875828207   -0.70176559682603
O          -0.07458179245700    2.60227876651516   -1.97571619850089
H          -0.01209186748527    1.91204235820504   -2.69476128230298
H          -0.65682125225411    3.28756331863494   -2.31072787265101
O          -0.23163117948394    0.62507876680863   -3.68115767365373
H          -1.14672080815760    0.33622384804616   -3.65492931053728
H           0.26998757520347   -0.08255077776336   -3.19470393090240
O           0.24994772268285   -1.58009310698258    3.25266227615532
H          -0.36646040667818   -1.57815522556129    3.98752700500200
H          -0.29371602499843   -1.37682293956112    2.45289459410202
O           0.77554092912396   -1.22594030292564   -2.10701178610884
H           0.96087417849925   -0.69876053433517   -1.30934696182377
H          -0.03928888613062   -1.71327691175218   -1.88603241406602
N           1.76747444531534    0.47647683644529    2.56899513704563
H           1.40904347245920   -0.38804115538390    3.04385531438689
H           0.89933605253314    1.11959984051888    2.47011053194033
H           2.58808611011712    0.88819175523079    2.99894004284083
