    26
        -50.46106576  Gyration_radius:  2.46779785113 Dipole_moment: 4.036
 S          -0.80941912197521   -0.83381603221680   -1.40496743846472
O          -0.92716499712793    0.46060362314964   -0.70077062431417
O          -1.28833428929153   -1.91254821566009   -0.58672606443878
O           0.56600741249938   -1.00804428275490   -1.86983733923515
O          -1.72822115430361   -0.73922532561491   -2.65935043224466
H          -1.25382265969019   -0.10820280486391   -3.23661031622780
H           1.81003957079514   -0.92992080226606   -0.70408965961614
O           0.28298495940290   -1.77617612370797    1.57318425428923
H          -0.34455627511474   -1.14946306604554    1.96612001162992
H          -0.20285440385698   -2.10845200085186    0.79519433076401
O          -1.85534822070538   -0.01411761654353    1.73307842609676
H          -2.54940547882769   -0.67291808219818    1.66555674999648
H          -1.61070328242201    0.19162510031927    0.80305678900496
O           0.18138537933845    0.64284041217947   -3.85260781409504
H           0.58997869383596    0.09916945454886   -3.14716567990905
H           0.52435934226549    0.31274007514546   -4.68598798403649
O           2.22722365660368   -0.68672296666147    0.15152532706159
H           1.68815498345047   -1.17782637816692    0.81808076194642
H           1.73333745641260    0.65843430570634    0.24320332846902
O           1.12342903574591    1.53512086253897    0.28147085818106
H           0.28201797651026    1.22044756904850   -0.21128351148386
H           0.82070108068205    1.63310849529738    1.29607456085867
N           0.30261430943372    1.61645289479940    2.69791465173488
H          -0.60362626445183    1.16117462076724    2.60290485580078
H           0.16461453929628    2.52750496360400    3.11479361805190
H           0.87660774155408    1.05821132037522    3.31723835017548
