    26
        -50.46106570  Gyration_radius:  2.46782876092 Dipole_moment: 4.036
 S          -0.98577330932557    0.73835621338376    1.34454980044048
O          -0.77467944245934    2.07638365952354    0.86729163370878
O           0.24604615752204   -0.06989307692850    1.22383311254635
O          -2.08856849484511    0.04079907966000    0.68453286194253
O          -1.31427350416323    0.81803438968123    2.86520703528139
H          -1.60292531312936   -0.09151122124446    3.07934889119464
H          -1.89134036221452   -0.37341405662943   -0.95928435824779
O           0.44960270592558   -1.76188520523050   -0.62560362384393
H           1.33833386605142   -1.42116995187731   -1.09977088657990
H           0.37385476990459   -1.19333726352880    0.22332959862738
O          -0.04231625701350    1.69983880038741   -1.67721822926754
H          -0.49933709288336    2.02331513522094   -0.87832766954033
H           0.87782497109768    1.62074566811646   -1.38043356475369
O          -1.39534907785075   -0.56848817751264   -1.78466701469714
H          -0.93898099407962    0.28436486251843   -1.98562050152988
H          -0.35794103057510   -1.37882917754752   -1.21156393396550
O          -2.33887277917141   -1.61091225246242    2.68807255897688
H          -3.25147211390824   -1.73692167365629    2.95707149411069
H          -2.36370967095908   -1.20086966115373    1.79852935249349
O           2.09821440579720    1.42877651078550    0.06860368496392
H           1.45941720137966    0.89378818375606    0.59092874125043
H           2.04946526114108    2.30917881865048    0.44643733385793
N           2.53433319721300   -0.77467709178108   -1.72051710749373
H           3.37623688079969   -1.33506613389840   -1.71465805472328
H           2.68394145120368    0.04419160320664   -1.13339828816140
H           2.35826859449659   -0.46079798149296   -2.66667284663448
