    26
        -50.46035920  Gyration_radius:  2.44059956365 Dipole_moment: 0.979
 S           0.10434626183486    0.56763518499566    0.60394378885392
O           0.72533523830939    1.45371087035910   -0.36407580335604
O           1.01129757332875    0.04920333831590    1.60139778647373
O          -0.61390609702320   -0.53129361082839   -0.07472767647519
O          -0.99199131312818    1.43679698948272    1.29153375853551
H          -1.38861808194806    0.91643964974758    2.04955691329354
H          -0.84410974654165   -0.34918049585535   -1.48097986168134
O          -0.48879214924873   -2.03805797311574    2.22844752888246
H          -0.86598043285884   -2.07224973178831    1.34173896783816
H           0.24833762220626   -1.40142077600352    2.13952846553345
O          -0.89097612799425   -0.01804748012893   -2.47942035715702
H           0.16470498699424    0.08147468011613   -2.70592513447909
H          -1.23000472285807    0.92842552205172   -2.35653862848734
O          -1.41744032181909    2.32948825332515   -1.58310673180810
H          -2.10201837060072    2.41594609028935   -0.91601209514244
H          -0.57656124556443    2.22444932717586   -1.08351533858527
O          -1.86230874716094   -0.02304672189176    3.24315023475065
H          -1.41338270169541    0.23536956541470    4.05116051513754
H          -1.47118253947287   -0.89336474104881    2.97614224585477
O           1.56966333593626    0.29367498224965   -2.62954425029508
H           1.90289465000750   -0.46041316815845   -2.06479678938021
H           1.54972448786071    1.03255972449365   -1.99682957918675
N           2.19489113986403   -1.41152736851667   -0.69097496183482
H           1.62484737486926   -2.24826082831003   -0.66278279848150
H           1.90590385058968   -0.82856103966403    0.09119706489915
H           3.15532606607678   -1.68975023272802   -0.52856726373732
