    26
        -50.46241471  Gyration_radius:  2.40595551098 Dipole_moment: 3.777
 S           0.04097367956217   -0.96333712844892    1.42647532905107
O           1.20278089858635   -0.70731270412136    0.58192235733182
O          -0.56760693103708   -2.23745752711856    1.16355706636418
O          -0.92372364871617    0.14971488614899    1.28396960596952
O           0.52131064724078   -0.93822718637373    2.90930380703794
H           0.76325346470237   -0.00453262589400    3.04687792327775
H          -1.73258741466158    0.23130607035886   -0.00422275473728
O          -0.23049300156095    1.04585181852989   -2.29588321021738
H           0.32356607984357    1.53742550675797   -1.61235934971678
H           0.24086273628395    0.20486089973856   -2.43471660787185
O          -1.60379462229870   -2.27294607056356   -1.25742074503146
H          -0.75959805036052   -2.19359911186358   -1.73527602106945
H          -1.34143845722245   -2.45125624589255   -0.32611720714645
O          -2.11909030075563    0.16777892891808   -0.94534635259578
H          -1.36615556957122    0.62453936936886   -1.58633098319333
H          -2.06341512777877   -0.85694068941914   -1.15293694415201
O           0.47467405173206    1.73629198979433    2.78971298806415
H          -0.16125191853670    1.33766044002238    2.15672486711179
H          -0.04675499166598    2.11632446960828    3.50001722839116
O           0.90905158457257   -1.41250087220680   -1.90866462622059
H           1.06060373412596   -1.18007708722072   -0.95657421902257
H           1.69109714046594   -1.88764330543990   -2.19253803410435
N           1.26326827149732    1.97858551896197   -0.34315672067226
H           1.36529019071801    1.06082358766637    0.09451850776424
H           0.86720555236301    2.59480934795615    0.35548235510753
H           2.19197200246708    2.31985773075796   -0.55701823970986
