    26
        -50.47202835  Gyration_radius:  2.47673422896 Dipole_moment: 4.480
 S          -1.03463092088964    0.93090785108474    0.64306336085163
O           0.39318591362491    0.99817585946772    0.99924606058200
O          -1.56734887896885   -0.39475335137303    0.85290801644040
O          -1.22806509080550    1.41885702695949   -0.71923294095143
O          -1.78781953829796    1.89074333039636    1.61292482306920
H          -1.53835367482064    2.78226674445034    1.29640934706160
H          -0.65763595376695    0.46882699661836   -2.05769123479499
O           1.58694591047123   -2.55627487329570    0.41313174690305
H           1.17380597490579   -2.13512647653550    1.22050907487402
H           2.09681154160537   -3.30360685739453    0.72737886751369
O           0.44482780662069   -1.27217415824309    2.38457304121775
H           0.64175778171101   -0.35401317163064    2.12231115028587
H          -0.49592586173561   -1.34358395000726    2.16278286997922
O          -1.10360469778653    3.91371098204192    0.05342335057866
H          -1.06012920441354    3.08952489806053   -0.47443944104576
H          -1.82645044017896    4.43126781361108   -0.30871740546421
O          -0.88783893994387   -2.24084110259584   -1.00504226246333
H          -0.08776881226930   -2.58640309778451   -0.58693560536860
H          -1.29788106232132   -1.65357678611726   -0.34321435718221
O          -0.14070940498970   -0.21089039986112   -2.53597517337482
H           1.10923458602716   -0.18052888034802   -1.68343196724671
H          -0.52010442850690   -1.06470753996162   -2.22058641886786
N           1.81721597704908   -0.16059444873140   -0.85525944199622
H           2.70445467569354    0.25644175364067   -1.11254151472625
H           1.93570231201334   -1.12467420941624   -0.49069125663767
H           1.33032444006872    0.40102607688349   -0.09490268937026
