    26
        -50.46448887  Gyration_radius:  2.54379309846 Dipole_moment: 7.074
 S           0.20990860408960    1.16861007980973   -0.50790748944724
O           0.98573148038347    0.51677661771642    0.56054458163925
O          -1.18777048789880    1.30896183891633   -0.08100101080224
O           0.30012336699111    0.42364521037314   -1.74359234699751
O           0.77351525923913    2.59368036531654   -0.70418285213320
H           1.47942294107203    2.51217596564734   -1.41561552047031
H          -0.98598560321040   -1.64407143625447   -0.35711080307483
O           2.42146244300946    1.86265023686862   -2.52828099742983
H           1.70637315720643    1.23846144817902   -2.73238867663152
H           3.03640528619340    1.35037865475088   -1.96447897240822
O           0.50739668012634   -2.02669970038804    0.21968894554070
H           0.78949759628798   -1.08590726899745    0.33331059909433
H           0.50686054456821   -2.41585496520816    1.09744855276032
O           3.32174374136948    0.10556920808117   -0.68824173508501
H           2.55545240974566    0.30527518430020   -0.11682316571701
H           3.16505609440026   -0.77701353974510   -1.03171215148102
O          -1.09578508906067    0.55968847781508    2.46363932813636
H          -0.14224320010228    0.43047805984316    2.48207325356193
H          -1.24238573808114    1.01458867743202    1.60920219333460
O          -2.79733244405701   -1.42489634989401    2.05815777133131
H          -3.64104693078862   -1.13649928054778    2.40962043740918
H          -2.14129119158399   -0.73642435061323    2.33844655179467
N          -1.92783750733265   -1.17388696508312   -0.43573114841430
H          -2.45720694517064   -1.38579810659924    0.45047745713997
H          -2.41507894087116   -1.45325723910303   -1.27986051855408
H          -1.72498553676295   -0.13063084257620   -0.43568229312266
