    26
        -50.45208296  Gyration_radius:  2.52338171388 Dipole_moment: 1.270
 S          -0.38485599818235    0.48096605396619    1.13163359452502
O           0.22931419695399    1.75203636253341    1.30344131230978
O           0.51674128361747   -0.62464639881647    0.90115275525335
O          -1.37437402812038    0.55555723764877   -0.05814830378877
O          -1.26921487596034    0.18938717702407    2.34566070386051
H          -1.82140347484660   -0.64419067264700    2.16682115966947
H          -1.30537473470377   -0.24549391214558   -0.68084798708085
O          -2.55453221152230   -1.95105428319269    1.87061263923589
H          -1.89818158053325   -2.47217467667748    1.32527079222814
H          -2.69615257534398   -2.44826725090345    2.67891191014509
O          -1.05937817298732   -1.33833893581814   -1.74476149341289
H          -0.05898974822798   -1.19052254074449   -1.83433688522495
H          -1.45020435181197   -1.04420889666330   -2.57005183225839
O           1.42114893991899   -0.70157987203527   -1.68905764132214
H           1.28949804890593    0.26175301036272   -1.86009610895511
H           1.48924970648866   -0.77266413252285   -0.72561154767866
O          -0.64360116016395   -3.00596214226585    0.46040068960146
H          -0.87542067983430   -2.85925429256597   -0.46518656131244
H          -0.02791886559123   -2.28163400900257    0.68055466793909
O           0.69948204910079    1.84837111934258   -1.71057726985529
H          -0.02812560224512    1.86532349273287   -1.08203511283006
H           1.42737047091753    2.34557679635970   -1.27050835922553
N           2.50307915547312    3.00650719196113   -0.04304452520648
H           1.84902682471406    2.70604527496176    0.67613993679362
H           2.62963589729983    4.00630995414759    0.05060762915464
H           3.39318147729829    2.56215833525048    0.14305581740445
