    26
        -50.45932327  Gyration_radius:  2.39911588967 Dipole_moment: 6.802
 S          -0.90276917107576   -0.01776786668487    0.86012362979175
O          -1.43113419766147    1.32173561086043    1.08002970984806
O          -0.40837607428820   -0.68067462053282    2.03646033144179
O           0.31192768306592    0.21984235340732   -0.13358444638668
O          -1.83294014328459   -0.82579191339124    0.06052233646594
H          -2.04972876230405    0.17581120133909   -1.03011277052918
H           1.15126712085997    0.36912698356832    0.36989033325428
O           0.48478150743891    1.80075412058631    2.89327098920940
H          -0.26407946217572    1.80898397023255    2.26331877804998
H           0.29264180949905    1.05344267857039    3.46837758841871
O           0.03196176707253   -0.13582326553086   -3.07136555721061
H          -0.21829581835078   -0.56818286275688   -3.89038605014434
H           0.17407734711181   -0.87813172115248   -2.41694702273516
O           0.00682068557901   -2.20051871263651   -1.44080219557472
H          -0.75725052150949   -1.91623033339525   -0.91311186776399
H           0.71531566852013   -2.31422894079743   -0.78112059968791
O           2.38630006108868    0.78448319862168    1.35877988994385
H           1.78352605461252    1.18676168900207    2.03641178713353
H           2.92021956442604    1.50250868856501    1.01292688126359
O           1.54464654082097   -2.17012898706278    0.86880629589635
H           0.81723762991766   -1.81300870221081    1.40747944776824
H           2.27168599183046   -1.55347456938084    0.99108144399592
N          -1.83677513009161    1.04085679179123   -1.64863782052753
H          -1.04249540692172    0.71138574747784   -2.29006528846819
H          -1.50422375367532    1.70422088717950   -0.93955305841010
H          -2.64434100053026    1.39404860432295   -2.15179278504490
