    26
        -50.46322925  Gyration_radius:  2.39960478147 Dipole_moment: 6.331
 S          -0.11276079991348   -1.24786070115627   -0.44739602265921
O           0.32557632436300   -0.80958828492375   -1.77769311995990
O          -1.34712368532613   -1.99328619760231   -0.48357606673536
O          -0.41596217817777    0.09993836246768    0.34308597481702
O           0.95792317922318   -1.85850836921261    0.31286379832769
H           2.00255281019958   -0.57390511682021    0.77929307678904
H          -0.89176965435755    0.74195840221177   -0.23002721867072
O           0.67178651859011    0.59763835052136    3.09361790357858
H           0.06964579130914   -0.12924024353447    2.82967723797166
H           1.07968486659580    0.30593192466786    3.91150176139825
O          -1.49537734229828    1.78047718680386   -1.37328964746029
H          -2.26440569072368    2.24616256844151   -1.03827194395995
H          -1.85327997883233    1.00147640097662   -1.88159847705543
O          -2.36178245514341   -0.47435264498544   -2.39914507094105
H          -2.14645600772053   -1.10299592691109   -1.67408547905463
H          -1.75506088606231   -0.71812491319776   -3.10340090125203
O          -0.62962888229681   -1.72516213211399    2.45629699939975
H           0.03647922023882   -1.94717333514487    1.78181170103379
H          -1.46735629372096   -1.79639652884542    1.99311219028972
O           2.32603116832786    0.32371878832283    1.00761906220435
H           1.76132049788631    0.57733068110475    1.77794139074845
H           1.89805239016136    1.06257855948000   -0.20815435030336
N           1.51656907258374    1.38033283771281   -1.19296809031522
H           0.75779374890896    2.05398838506190   -1.10110231460362
H           1.08327258042079    0.47075687373712   -1.58336587875522
H           2.25427567545707    1.73430507293978   -1.79274653465743
