    26
        -50.44493001  Gyration_radius:  2.49568416045 Dipole_moment: 2.250
 S           0.32056311260198   -1.66970617625090   -0.06984427137802
O           1.35534018522578   -0.69155976261631    0.18207555219515
O           0.35275378893711   -2.26517497056532   -1.36351285383884
O          -1.05037651402556   -0.97530138229961    0.14344643494203
O           0.34895090308419   -2.72899696170904    1.02530048962735
H           0.24434384957863   -2.25516488166905    1.92933381885783
H          -1.35442261780334   -0.66953183188435   -0.76435010625696
O           0.19651162952301   -1.49510424489693    3.23195736141063
H           0.69313806119158   -0.64148312633213    3.07824824011204
H           0.67892664352892   -1.97013251508351    3.91255456165003
O           0.07185957399413    1.83422203320992    0.58155217465241
H          -0.85910130245227    1.88688999805512    0.31498454827793
H           0.35026049078276    0.92927442809356    0.39331755433132
O          -2.40213090299396    1.91029418843974   -0.76207107387015
H          -2.34691503753727    1.16229191797971   -1.36878230151192
H          -2.58437069654940    2.68843584957812   -1.29147445782751
O           1.62606653717085    0.59649077766178    2.58335639675669
H           1.89173231693713    0.17276984658881    1.75166675329844
H           1.07862265318194    1.34353514627936    2.29980929901368
O          -1.42648344065073   -0.28945330044988   -2.29970794380160
H          -0.56703572915133    0.23652022381562   -2.37741110450476
H          -1.20898918176230   -1.16535861442602   -2.63488671185286
N           0.89992223627365    0.92911108902096   -2.20617089936658
H           0.84076360611531    1.77397068274128   -1.64599216941070
H           1.48282516192734    1.12155185363671   -3.01066085761212
H           1.36724469266685    0.23160974100134   -1.63273846362944
