    26
        -50.46042133  Gyration_radius:  2.52498778813 Dipole_moment: 6.866
 S           1.54760040432470    0.72600267765343   -0.09599956558468
O           1.22945026507611    0.75124402014244   -1.51252965907930
O           1.69330882603646   -0.62278685789242    0.41005695829931
O           0.54583556938764    1.47721247134089    0.67897592748155
O           2.91896907000526    1.44168050300260    0.11087146265799
H           2.70009652354844    2.35784809224747   -0.13676185804999
H          -0.98532883028355    1.12948959127200    0.29953628352145
O           0.40292764722675   -2.49528143541745   -1.19302850020254
H          -0.20904503760657   -1.94620574195398   -1.70292509538214
H           1.09508337974951   -1.88258221506115   -0.89616293899851
O          -1.86761771062153    0.76145757319495    0.03650921630307
H          -2.03683180452685   -0.35250912204367    0.97339975534098
H          -1.71904405869120    0.39078715174844   -0.85922884326542
O           1.58986105494202    3.72640043679758   -0.14636982973410
H           1.67180249111832    4.34357267451445    0.58396761077727
H           0.98476016445295    3.01693393395431    0.15530844652499
O           0.12312519797955   -2.46916916423099    1.45041513321590
H           0.80466807042255   -1.76915322973873    1.36012939221161
H           0.10908328160232   -2.83327384520853    0.53790825795641
O          -0.98605224650774   -0.29733259285721   -2.26114062806807
H          -0.10482942695059    0.11319839340771   -2.02610670150355
H          -1.17944413219644    0.00152501303864   -3.15108100404284
N          -2.09688262090434   -1.19292075847181    1.68696943621723
H          -1.15082373693876   -1.75624512964380    1.61085085906634
H          -2.88209994420594   -1.79375068900640    1.45883741331677
H          -2.19857239631736   -0.82614174096406    2.62759848101505
