    26
        -50.46506168  Gyration_radius:  2.50634333166 Dipole_moment: 5.391
 S          -1.17381519803983    0.21497960061609   -0.44566496398414
O          -1.62291356706050   -0.81662503730449    0.46578297406068
O          -0.83223688008475   -0.29224104444333   -1.76985489727179
O          -0.03875271025907    0.98044403720225    0.09673773745390
O          -2.33476595690232    1.23017186510562   -0.63772989089447
H          -2.70195947415012    1.35708849169230    0.28517475136574
H           0.94798244838693    1.36377449717958   -1.09635774179770
O          -0.46046765204676    1.08267224798496    2.73275137485624
H          -0.13304451442442    0.21201009406420    2.98512914465519
H          -0.18200903703533    1.17986772205897    1.80334757425035
O           3.15508043278640   -0.59217632501083   -1.85337789100958
H           3.42829690164479   -1.18462974472680   -2.55582512984132
H           2.53402740256868   -1.11695942936928   -1.28391694605575
O          -3.00216624951230    1.13278525280391    1.85909106474299
H          -2.14436164044181    1.26392175593442    2.32564497012424
H          -3.09360488939057    0.17672730884724    1.78347500597961
O           0.29865549979044   -1.67933346269083    2.01381697927504
H          -0.47488099070694   -1.35916851996233    1.49490043305211
H           0.07287516155250   -2.56291358103336    2.31075550073742
O           1.19493657180478   -1.83039128993169   -0.61358990691976
H           0.39476736003834   -1.45649633770970   -1.01108513195897
H           1.07702979138958   -1.76536789765705    0.35160138104859
N           1.23726419800458    1.19954034610618   -2.10501961349829
H           2.11055481456184    0.59909319137000   -2.10897339850409
H           1.32996435485008    2.05547546786387   -2.63997285606385
H           0.41354383266900    0.60775079099137   -2.38684053382330
