    26
        -50.46765640  Gyration_radius:  2.38956198318 Dipole_moment: 5.681
 S           0.02915029896678   -1.40735172261707    0.62595944699781
O           0.23610306006874   -2.81611813999411    0.46159569580868
O          -0.78141119383702   -0.82906360593947   -0.45900669353606
O           1.40986325934707   -0.65878540492731    0.57418891301316
O          -0.51339944234385   -1.00681452490739    1.92489173106142
H           0.10337005034464    0.30217390854725    2.22079614190949
H           1.77264698909256   -0.70281848998317   -0.37339309988099
O          -0.72157102791174    2.60624763645872    0.50510121841720
H          -0.36001653633457    2.32471655267564   -0.35929062873538
H          -1.55390007408092    2.08793197796992    0.60596994031385
O           0.41459865356786   -2.70021591011444   -2.17693833462172
H          -0.46395515109524   -2.34251184729927   -2.32884427599449
H           0.41481821553984   -2.94598496645398   -1.22811258613042
O          -0.00717775151164    1.26756950546349   -1.76655115286614
H          -0.31166251566074    0.45472172593336   -1.28519604488634
H          -0.64639654861763    1.41691558989030   -2.46566141620025
O          -2.54642931000116    0.69154234033143    0.80369968335929
H          -2.61218583085107    0.28350294715436    1.66998964781122
H          -2.00248473278366    0.06486797837025    0.28173680054728
O           2.07932022060282   -0.64956704541293   -1.87760169950961
H           1.57336387007036   -1.44745014267215   -2.16411070942119
H           1.55705272664989    0.12452170237406   -2.13469215106969
N           0.62182036083981    1.25910712826111    2.26233461932361
H           0.64040444069309    1.63967753628365    3.20297313871627
H           0.10745665578221    1.91855477526795    1.56327790835939
H           1.56062133345421    1.06463049540618    1.91688388722623
