    26
        -50.47279768  Gyration_radius:  2.47519173682 Dipole_moment: 4.310
 S          -0.99982041441315    0.36880761770239   -1.14796298437220
O          -1.17134213975528    1.08449253280405    0.11050793089175
O          -1.64121079574599   -0.92930240885448   -1.12417821105966
O           0.41847481697106    0.26347183499743   -1.49744466307887
O          -1.68532778187249    1.24981011153810   -2.23835826898904
H          -1.37849082273606    0.83308916862961   -3.06641798323175
H           1.37978613613557   -0.69662923165311   -0.51720565438607
O           0.76130917805902    2.62295073454634    0.95668694116614
H           0.30240743232313    3.35880427716357    1.36588561537762
H           0.06072767519791    2.09672707046993    0.49915449571191
O          -0.65373700431995   -2.51134859411305    0.64839668001203
H          -1.00275201864012   -3.39155501706513    0.49994211411366
H          -1.06066065560551   -1.93781317977980   -0.05852574186199
O          -0.17690445657937    0.02066143357476   -4.02915573342815
H           0.39376596035117    0.57514054429923   -4.56613476307739
H           0.25442099458791   -0.05346939547001   -3.15249797542522
O          -1.10131396159786   -0.39247452183931    2.33746097785555
H          -1.06731441218256   -1.28303723540863    1.94793174694391
H          -1.33230168402427    0.19090623950086    1.58449827876256
O           1.74848468055818   -1.27072313638217    0.19125329262176
H           1.70611370242151   -0.30894601845969    1.41606580023591
H           1.04242005770008   -1.91795290374611    0.36668429499337
N           1.40981237518414    0.35096706281078    2.20942763644590
H           0.41690657927478    0.04740316610205    2.45908380809442
H           1.33193342267406    1.31556439887561    1.80690663372029
H           2.04461312604226    0.31445546974648    2.99799573202931
