    26
        -50.46647884  Gyration_radius:  2.48104055904 Dipole_moment: 2.793
 S          -1.01038918155536   -0.99791827174435   -0.33012408226018
O          -1.29174594276483   -0.12586170118440    0.80126962618865
O           0.20160116806309   -1.77579913184723   -0.11661165731377
O          -0.93587271761834   -0.23724844430030   -1.57734646193512
O          -2.17923673643976   -2.02129387610204   -0.45657157083650
H          -2.91396017459124   -1.46072119195223   -0.77426178308957
H           0.18017381088842    1.09414134597470   -1.80714938724811
O           2.40183908225414   -1.01948385531233    1.71566222738653
H           1.80681254172150   -1.72343927410648    1.42927521318176
H           1.82356020315216   -0.40872031594331    2.21609242063345
O          -3.54688642977004   -0.10860583717879   -1.64738238573134
H          -3.89753118363249   -0.23754148841860   -2.53156963812955
H          -2.59509019706905    0.09706362077319   -1.74995025634996
O           0.92154541664925    1.69216318903401   -1.58594758331009
H           1.87825800296152    0.57490312433367   -1.13993736564840
H           0.59307006006351    2.17332639501744   -0.79409540447399
O           0.38072663523742    0.40776404636078    2.77248689225996
H          -0.26109270772955    0.14904823757122    2.07079985315423
H          -0.02662881021575    0.16624177870312    3.60545810480483
O          -0.26786869516571    2.38470009580549    0.69186789325620
H           0.21226311410242    2.30172685752437    1.52164402484046
H          -0.83136575225179    1.58991311187549    0.65227032963516
N           2.28496211770858   -0.37934369987511   -0.84039461290696
H           2.62555698834816   -0.39063441533154    0.15294870574790
H           2.99101735032064   -0.71070615536722   -1.48811354714708
H           1.45628203735429   -1.03367414434056   -0.79031953470779
