    26
        -50.45677430  Gyration_radius:  2.47288049249 Dipole_moment: 3.912
 S           1.62408685508884    0.42954910460269   -0.17380063174088
O           1.97216927829183    1.64919120372110    0.49107993224627
O           0.80016481084488    0.62083378777569   -1.34817697894910
O           0.87272997627123   -0.50623956707538    0.80168147093983
O           2.86505122412286   -0.37009279553129   -0.50476189434497
H           2.56579619488500   -1.36566116274504   -0.61291168083099
H           0.03964680810353   -0.02312500635715    1.20093058309834
O          -1.10482353799973    0.76988831354080    1.66416051943464
H          -0.67760090126096    1.55942980263747    2.06622327102035
H          -1.47937062925888    1.09478414286170    0.81509231952455
O           1.93604764531580   -2.68548979979084   -0.65338231682974
H           1.15459619559367   -2.50768353242664   -1.26525586179569
H           1.56196619534942   -2.79239397692676    0.22572448758396
O           0.40221143392629    2.87327327673648    2.26224421903101
H           1.04069065416120    2.56629935717274    1.58720838450340
H           0.91160898657594    3.03060815533381    3.05891479663164
O          -1.60710221998056    1.60532449209540   -0.82503664070998
H          -0.74203243596185    1.26396140181506   -1.13880913428050
H          -1.59334906147822    2.55156376560584   -0.98096020818031
O          -0.07978316544280   -1.85346047841433   -2.02316106038880
H           0.21827500294820   -0.92988955261477   -2.03921700023211
H          -0.90090376174436   -1.83816571490892   -1.47717025422360
N          -2.24383971983417   -1.40193312414226   -0.42936227373442
H          -3.10118846422835   -1.93316379889965   -0.51457683904661
H          -2.43322322782948   -0.45499081232844   -0.73967591336928
H          -2.00182413646766   -1.35241745177187    0.55299871459441
