    26
        -50.46633717  Gyration_radius:  2.38596703055 Dipole_moment: 5.208
 S          -0.87214668737430    1.27155460972873    0.56189170446335
O          -1.82106628441940    1.67621143980813   -0.43852866888871
O           0.51525601347258    1.47444658564270    0.13242289886039
O          -1.03468548342599   -0.28982407278936    0.79208313146656
O          -1.08836769682360    1.80378489547590    1.90117652813630
H          -0.41713867252139    0.80320711321389    2.72670618463543
H          -1.17966473141342   -0.76800680553432   -0.06509181931862
O           1.91684214235716   -0.33079066171583    1.38942600771106
H           1.78981129315612   -1.05155144366638    0.73197849688388
H           1.56445734149103    0.45928338450907    0.91900812991696
O          -1.41386756298251   -1.62185499619172   -1.42214369396686
H          -2.30229060367182   -1.97739820220251   -1.47269570219846
H          -1.38421008767232   -0.85147242005083   -2.07203193286505
O          -1.29109162096401    0.55223159219259   -2.79550116352345
H          -1.57571596856860    1.10716265727200   -2.03849824087473
H          -0.32916352973590    0.66812476514875   -2.85886647756205
O           1.36237987664579   -1.79624223659209   -0.79664340203655
H           0.44203605327842   -2.04007628823368   -0.95064986870231
H           1.52957493107293   -1.06232869200004   -1.41068916083141
O           1.39345224938007    0.64595816885277   -2.17101897677663
H           1.06778361693678    1.02007417437599   -1.31433883910378
H           2.14241328171341    1.18388786164593   -2.43050582115016
N           0.11519295855258   -0.02745016687541    3.20193180028524
H           0.92250654415525   -0.26793689213331    2.49970166140026
H          -0.52486758253902   -0.81328495234051    3.26504653894048
H           0.47257020994736    0.23229057235515    4.11583069510327
