    26
        -50.46443319  Gyration_radius:  2.44673413084 Dipole_moment: 6.622
 S          -0.60471548854444    0.67700999363668    1.76641888246607
O          -0.34996327528615    1.90701619678869    0.98687017004690
O           0.27657314384484    0.53182667189514    2.89132536496933
O          -0.56489879778633   -0.46318882164707    0.85894013142745
O          -2.07028764403123    0.77842514631684    2.31183669730983
H          -2.59903406209463    0.88526753812773    1.50180507321340
H          -0.25854542808762   -1.63523924905971   -0.15308691751626
O          -0.11445095054895   -2.26520811560569   -0.90359322727656
H          -0.45296905151206   -3.10851013861865   -0.59934088426945
O           2.36938918295121   -0.80645811038602    2.01296229946017
H           3.07996508924968   -0.42384369588191    2.53076230715409
H           1.54427662468083   -0.38885121431545    2.34888432104146
O          -1.27317201787246   -0.27070660180591   -2.31583268648117
H          -1.60648231370105   -0.54739548850947   -3.17052139252642
H          -0.93502981804998   -1.07302732484300   -1.86241330139417
O          -2.64285594521100    1.32334835776636   -0.26607588708775
H          -1.84822448542236    1.79330399116889    0.03708155321705
H          -2.33383122773643    0.67698535664260   -0.91452035537605
O           2.31381312935592   -0.88701290503135   -0.64494159821823
H           1.49090241438976    0.36866321939572   -0.98086857159860
H           2.41131784946069   -0.87967632769496    0.33598401194313
H           1.67081567773361   -1.58979756177432   -0.82450645956008
N           0.80707064200676    1.17183513937255   -1.20615263509012
H           1.26955924965236    1.93177360556786   -1.69309478138696
H           0.38691883514875    1.51485275026322   -0.27973816738624
H           0.03385867740886    0.77860758822786   -1.76818395708685
