    26
        -50.45875114  Gyration_radius:  2.52129667507 Dipole_moment: 10.920
 S           1.01362500488139    0.18754527942213   -0.40984144065719
O           1.63659618797862   -0.12051999576933    0.84561690797682
O           0.14062723445332    1.35885180192085   -0.34448081817922
O           0.08213414356362   -1.01573488433154   -0.83181853552864
O           1.94598261815918    0.28449969818506   -1.53710999415904
H           1.14797155895665    0.05136338408900   -2.64568057822189
H          -0.53595554672353   -1.19530858383687   -0.06553739947608
O          -1.55401872551803   -1.33716953570049    1.13927601404078
H          -2.46925634297576   -1.44283523964889    0.87472125729529
O           0.95257455100150    0.56357492813696    3.46462730601315
H           0.86012196007255   -0.39035855155608    3.62277302247410
H           1.49063635582830    0.60932179709204    2.66203638057890
O           0.77859008868086   -2.08892564120488    2.61524037093591
H           1.26792389356339   -1.57588403899158    1.95463033159716
H          -0.12231168029156   -2.13940225871634    2.27725487285340
O          -1.27571436811221    1.69580529943564   -2.47453390752176
H          -0.81550473425546    1.59861882670245   -1.59625313893079
H          -1.25979131695130    2.63450055823181   -2.67014263474151
O          -1.20563684443019    1.05574372439308    1.96880038640589
H          -1.48411641552830   -0.40847252981554    1.54754898167687
H          -0.50825544299031    0.98998334541734    2.66369074881740
H          -0.73898894437320    1.36151396534152    1.17013452588031
N           0.35277011908802   -0.13672270491705   -3.42383919884315
H          -0.04247414395366   -1.04702016460194   -3.20093772927218
H           0.71399314042335   -0.10631666824490   -4.37154812125035
H          -0.37152237054573    0.61334819896752   -3.23462758976997
