    26
        -50.46864954  Gyration_radius:  2.41903809788 Dipole_moment: 3.011
 S           1.31431576874762   -0.33143201183468    0.01769144815305
O           0.47257691072957   -0.89428855150158    1.09429141061613
O           1.97418510103855    0.87582394590763    0.48894764790361
O           0.52598783755299   -0.09371145201746   -1.18055457052481
O           2.39866465437483   -1.37889542586419   -0.31386553213553
H           1.90669770964488   -2.11690818737100   -0.77485629546662
H          -1.05862160497958    0.00767316844328   -1.07583309724925
O          -2.04180375952825    0.11855718849732   -0.98386525188256
H          -2.37605935317166    0.24999857156672   -1.87290222951746
O          -1.27271084227221   -2.50183950702410   -0.08566603204355
H          -1.85254088672311   -1.83913503817669   -0.48197249820797
H          -0.68342632736543   -1.98340047896702    0.49815470093483
O           0.93796123864577   -3.26417228786482   -1.33391788145678
H           1.15573791343207   -4.10951454531978   -0.93482095127990
H           0.03882819080274   -3.02634627020503   -0.99370074512126
O           0.67897781407598    2.67477071917433   -1.01235563477194
H           1.29261219175425    2.13913575985729   -0.47189234900178
H           0.53938701837438    2.13220446460470   -1.79393255818810
O          -1.53025187741726    2.37011541064075    0.45090500400012
H          -0.70266863540077    1.84081361837659    1.59292071089887
H          -0.79905027702273    2.67452838272427   -0.13878575995669
H          -1.90576317790758    1.58534257471487    0.00052692627488
N           0.04539188070649    1.36107089799217    2.22846459154358
H           0.97612395493074    1.65316149842679    1.89423861218505
H           0.05842545838694    0.32853292014990    1.96360531685880
H          -0.09297691134358    1.52791464529683    3.21917501748983
