    26
        -50.45958868  Gyration_radius:  2.42005346929 Dipole_moment: 7.268
 S           1.41699418991804   -0.97107341548295   -0.71023181517890
O           0.77257061530017   -1.39207499195588    0.53440076404531
O           2.68520078134987   -0.32979069482309   -0.50762067624233
O           0.48039906272649   -0.21985551052546   -1.53689257118842
O           1.71219521205484   -2.30144873094329   -1.52201742357241
H           2.61442254023453   -2.45014767357117   -1.26308925049352
H           0.07637960723636    1.24077321108949   -0.95339475121616
O          -0.18999590734168    2.09642310983618   -0.53995122794714
H          -0.26814049209591    2.73475251263026   -1.25013037292906
O          -1.74416836544942   -1.21932952376487    0.69292829951624
H          -2.03729504550589   -1.15749120277901   -0.31305519001217
H          -0.74281619484771   -1.40702907997820    0.65806144576395
O           2.15163070124975    1.84474166564925    1.02494575853235
H           2.51524220124849    1.11392659758032    0.49478749754906
H           1.40973543803733    2.19631976514378    0.51375423588135
O           0.69923206069671    0.35102189092356    2.70023419981736
H           1.32768785767006    1.00142211493822    2.31698583492049
H           0.83167940478148   -0.44744265464908    2.16818917639465
O          -1.54416922276398    1.07243960528359    1.60926062890553
H          -1.77246521573242   -0.21759760004045    1.11764923220647
H          -0.75172719674429    0.88247383973596    2.19648047700075
H          -1.18374718590654    1.59753473272444    0.87247164371182
N          -2.16058387168062   -1.03732947904204   -1.81732234193897
H          -2.77767897212967   -0.32713183193250   -2.18857809786587
H          -2.32982170228721   -1.90149307892331   -2.31463000233862
H          -1.19076030001374   -0.75259357712355   -1.98323547331339
