    26
        -50.46443317  Gyration_radius:  2.44678019717 Dipole_moment: 6.623
 S           1.57582829609192   -1.04911053457181   -0.60022796289671
O           1.85423683831534   -1.11575396799721   -2.00782486668570
O           0.61750844801163   -2.08109214203537   -0.15078086174806
O           1.08372794159980    0.25622184833106   -0.17694808157039
O           2.91642157127816   -1.30569440877548    0.16954720646028
H           2.64610999106904   -1.25609546283128    1.10314612007937
H           0.34559049848704    1.62243048638046    0.10687870313297
O          -0.18998450804320    2.39928850696559    0.40779824036079
H           0.40410704070762    3.15032884902002    0.37110716378190
O           1.29517970351738   -1.31598664320483    2.32391986911650
H           0.73031983491657   -0.53959808417354    2.43275426866802
H           0.91652152294263   -1.81553370199209    1.58140728367170
O           0.08016471067466    0.43963859142579   -3.18086041609487
H           0.79149522889688   -0.06377955117040   -2.72406267192552
H          -0.06926415364437   -0.02094428222204   -4.00846616753048
O          -0.82734002620584    0.71054177454197    2.42227319534522
H          -0.57156850078783    1.41007407795183    1.78288147353579
H          -1.19176124632354    1.14952195535709    3.19209184466236
O          -1.82823894061115    1.06983587948192   -1.43869080193412
H          -1.17048266766703    0.86112866674724   -2.14263497915135
H          -1.76112410544316   -0.11171653960974   -0.45597733218510
H          -1.41659662350575    1.77527141383653   -0.91660954909446
N          -1.62295980228841   -0.86980351453532    0.29889949888032
H          -0.72725711923245   -1.41122333785582    0.06049961104049
H          -2.41819949671000   -1.49719684066009    0.34924187198938
H          -1.46243441605080   -0.39075301839223    1.20063737009854
