    26
        -50.45755045  Gyration_radius:  2.53742888695 Dipole_moment: 10.365
 S           0.28121482677162   -0.42673405978060   -1.00964179307517
O          -0.15337690046225   -1.74199695921056   -0.63591848998936
O           1.34156448238059    0.10013386465523   -0.15524351395524
O          -0.93446248012785    0.57577618289274   -0.84825778869258
O           0.62627406518731   -0.28673661256086   -2.42892591670621
H           0.55025688424943    1.07957555428604   -2.62823427320223
H          -1.31375990791982    0.42431998873373    0.06093688263373
O          -1.94810181216142    0.11477349747914    1.49452120086632
H          -2.82327339324335    0.48069874110315    1.63294895543191
O           0.32561321708796   -2.93940220749284    1.99011961433484
H           0.55955010632984   -2.06969568314300    2.37187229033060
H           0.53023594170654   -2.85542000332557    1.05125696655339
O           0.70178393425556   -0.28325181830662    2.45041243599529
H           1.06242804621474   -0.13858599697780    1.55816226699875
H          -0.21363902461552    0.01758866443129    2.40751913958635
O           2.10410263553156    2.53181604539090   -0.59031670439247
H           1.83672066676883    1.61773207695541   -0.30300641122506
H           3.06276853501466    2.52597607092766   -0.60753574906662
O          -2.13174525966651   -2.41901586278423    1.10858230690846
H          -1.40824254284360   -2.77954592062478    1.67158902515991
H          -2.07186269861035   -0.88973181191491    1.41870640743521
H          -1.70878780815758   -2.37928539103643    0.23633847832221
N           0.45074690620851    2.20464857264400   -2.60370491743666
H          -0.48409213303602    2.38545627492932   -2.24505886351834
H           0.59375229425278    2.63383770210803   -3.51185928369377
H           1.16433140880678    2.51706906070528   -1.88526229557215
