    26
        -50.46337607  Gyration_radius:  2.55576876621 Dipole_moment: 3.977
 S           1.41355203755570   -0.89821140925843   -0.57113661095015
O           1.50923198584655    0.11819843789011   -1.58947222420910
O           0.17177771123490   -1.65917234010640   -0.64232799819668
O           1.57965313257899   -0.32995802363494    0.77587444114903
O           2.59414737204458   -1.89925190688013   -0.79313531766243
H           2.54437204216162   -2.46674460390916   -0.00123492499848
H           0.82207882783144    1.06695186986974    0.72156258156013
O           0.32380816741616    1.92579359440641    0.73967824920015
H           0.99097291763808    2.60515838851068    0.62891980765651
O           2.22672488546034   -2.68347030093848    1.72460515438519
H           1.87621483388074   -1.77613880641123    1.61014728522296
H           2.98554863579813   -2.60871573394550    2.30757260386712
O          -0.51887624673185    0.71438738350858   -3.14584476620590
H           0.23751332734908    0.39435924745899   -2.60183857437046
H          -0.12735968487852    1.21882664546155   -3.86074641619286
O          -1.55346025619151    0.90164328725821    2.47011500313313
H          -0.78533633867017    1.30742469353582    2.02903275111115
H          -2.18951573984899    1.60774951960501    2.59985528938182
O          -1.78522245217464    1.72312855525193   -1.04237985738598
H          -1.01723619050021    1.97254136269028   -0.49782690068011
H          -1.41094577405094    1.43836556901874   -1.90747913793180
H          -2.06997085503065    0.33952557021217   -0.37158381779370
N          -2.00303069463372   -0.55400750399421    0.21876932879167
H          -2.81094004267541   -1.15472561642224    0.10232519611869
H          -1.88733378407052   -0.24329917973877    1.20411288720940
H          -1.11636781734266   -1.06035869943992   -0.10756403220674
