    26
        -50.47215851  Gyration_radius:  2.43228118511 Dipole_moment: 2.540
 S           0.43582072608095    0.54246122015405   -1.37033098249130
O          -0.34154835999378   -0.70130513942191   -1.26013909185033
O           1.62206050830228    0.49127683489227   -0.53774374572876
O          -0.40396773148669    1.70103027969174   -1.12022274681594
O           0.94220262515226    0.61135060416087   -2.84816770641348
H           0.11055718378631    0.67095378295604   -3.35951349737644
H          -0.88027317475431    1.94255587972824    0.43795702089199
O          -1.16898766110909    1.97295773477406    1.37931132722195
H          -1.59948132241572    2.82020455028143    1.50353772298682
O           0.43859941295739   -1.63457779471170    2.41863274459950
H           0.82278394023809   -0.73253422280549    2.55343435115175
H           1.06263903164595   -1.99139112880941    1.15951107079275
O          -1.65784344140509    0.72194987572870   -3.28898105336713
H          -1.55709770463736    1.35127683081703   -2.55785377666657
H          -1.81952426027146   -0.12928667701546   -2.86879633232826
O           1.25542400668476    0.86913510007421    2.15458398308651
H           1.54954227121804    0.85672388357370    1.22862166948366
H           0.42320131457494    1.36711037181597    2.14082015806996
O          -1.69765966525850   -0.75009567090883    1.11460532817235
H          -1.34134821089839   -0.76168749850704    0.20981207454137
H          -0.48183675179757   -1.45138527592146    2.11100851032349
H          -1.72598860679516    0.18485701809481    1.36785953649614
N           1.44382399695107   -2.03508850981162    0.10976628813910
H           1.98135574097509   -1.16230454779910   -0.05140282957432
H           0.62306082969186   -1.87789302532171   -0.51594280887647
H           1.96448528255069   -2.87629450568925   -0.11036724446951
