    26
        -50.46208852  Gyration_radius:  2.46588555503 Dipole_moment: 8.971
 S           0.23289227906771   -0.37970571331040   -1.13067375734311
O           0.82046481204255    0.94598930196894   -0.53501582272777
O          -1.12666251650175   -0.15385743130568   -1.53353654662831
O           0.34532862798235   -1.37247422346510   -0.05247745262509
O           1.15088018753968   -0.69134836717975   -2.22715053978654
H           2.40292430631357   -0.34025997514070   -1.71857292097906
H          -0.80425338181533   -1.30829794354835    1.10339493624732
O          -1.42967095770042   -1.11488460169613    1.84267278580759
H          -1.30922944568906   -1.80887932788717    2.49221025779535
O           2.45822710574794   -0.60975600355507    1.23182224404050
H           2.12998440973659    0.15274814625026    1.71591450050210
H           1.65527343045515   -1.02618070780645    0.82138321895414
O          -3.46109761672176   -0.68548234448810   -0.06381149332303
H          -2.98751883016193   -0.91029481947708    0.74875082572192
H          -2.79152214711658   -0.73334159896453   -0.76185071914191
O          -2.67790791440250    1.89682346310397   -0.45048033665500
H          -3.30146193138988    1.18552265604224   -0.21046388102271
H          -2.13917901461796    1.48856918728897   -1.14348384295163
O          -0.78340608260641    1.50971138476905    1.33115838348901
H          -1.54393164382020    1.82623242159203    0.77403149648116
H          -1.07970786547175    0.66009274559922    1.70132741130991
H           0.19257925447584    1.23085769223194    0.22525354130839
N           3.33376637896101   -0.01291677618649   -1.17975565477712
H           3.12597573640530   -0.22242726364926   -0.15475327769653
H           3.43577315681327    0.98858998612781   -1.31483779772258
H           4.15147966247579   -0.51502988731010   -1.51105555827634
