    26
        -50.46656025  Gyration_radius:  2.45809467543 Dipole_moment: 4.221
 S           1.82509515079914    0.82315846884864   -0.71984331015257
O           1.90480731898048    1.33509211309333    0.63387319928036
O           0.46950438407996    0.82384311096078   -1.24856853530974
O           2.48466877822513   -0.45952221844031   -0.87443328767287
O           2.62287009476062    1.84678682442095   -1.63140830502830
H           3.50407549536063    1.78178692513238   -1.27906761373651
H           1.69054539639129   -1.73886575631669   -0.36583125183741
O           1.11492697009500   -2.46956407692917   -0.01331669862427
H           1.67095833138387   -3.24927105141810    0.02456145805578
O          -0.79797451153589   -1.43792225893027   -1.63194620630961
H          -0.29136736312327   -0.59514808367206   -1.67225734907589
H          -0.22890130973711   -2.02555491267415   -1.10237154781438
O          -1.74767794528990    0.67426329224386    1.75136894458489
H          -1.39007233096306    1.51190632460960    1.35671269897772
H          -2.34463992272118    0.00574785179648    0.65906376615309
O          -0.50398788633301    2.60015502360762    0.45015431287951
H           0.33402146185715    2.64360419508650    0.92747454090794
H          -0.27672911774594    2.04913648857417   -0.32413619518082
O           0.55596197747914   -0.57024179573832    1.94907678532319
H           0.69256759724297   -1.35544230087954    1.39828172225207
H           1.13373832328231    0.12436878200284    1.57801323672369
H          -0.93382611692445    0.15267567645535    1.97349366727100
N          -2.79236107028252   -0.50415303128664   -0.24524886738214
H          -1.98590978358129   -0.94336951081724   -0.81836608507060
H          -3.25656275666496    0.19396302959990   -0.81731324811497
H          -3.45373115503996   -1.21743314932742    0.04203417889801
