    26
        -50.45755049  Gyration_radius:  2.53732068989 Dipole_moment: 10.365
 S          -0.13561295612919    1.11350081264622    0.15085251747462
O           1.22661559129976    1.27862878294144    0.56977281979900
O          -0.89685604342162    0.19751913856472    0.99543865520470
O          -0.14861119545062    0.47010575462996   -1.29630243442538
O          -0.86041822004382    2.37311242073089   -0.05165952220874
H          -1.91516249938792    1.99189378414652   -0.86040294720511
H           0.45381936488600   -0.32333178920417   -1.26455653748781
O           1.47888074664041   -1.54767425816915   -1.20778902660074
H           1.74668768043915   -1.88631637108953   -2.06368700845744
O           0.53341191301568   -2.06404575724976    1.42523070595414
H           0.82061384080672   -2.21353128210295    0.51665626586920
H          -0.04833430471913   -1.28483143432528    1.38652806168167
O          -3.31573810486616   -0.34428006280973    0.26134310079909
H          -2.38101248207626   -0.25167059478219    0.58892395682871
H          -3.87052437923868   -0.25864984647470    1.03866337382816
O           2.63682036737498   -0.58995586340643    2.32562142852398
H           1.95189915808879   -1.27464793032414    2.18767399808092
H           2.17807065917869    0.24558091178302    2.17791020736659
O           3.39888670658213   -0.17584431373964   -0.19117741564523
H           2.29245722351747   -1.07766298802303   -0.82382322760336
H           2.86631678886437    0.63204116800656   -0.12004691608708
H           3.42214121898164   -0.48951190509883    0.74235104916009
N          -2.70683236740794    1.50373520836893   -1.50184634008970
H          -3.38439668796849    2.16568176111501   -1.86533678307941
H          -3.14440138634575    0.77348058767421   -0.87088757734448
H          -2.19872064251104    1.03667405540012   -2.24945041442120
