    26
        -50.46208858  Gyration_radius:  2.46571340626 Dipole_moment: 8.967
 S          -0.64412367911622    1.02826408737504   -0.06952542138272
O          -1.47395900807789    0.48996003584210   -1.11040384522253
O           0.85829673708279    0.92728685304809   -0.50512423062882
O          -0.73785078583754    0.26181586231443    1.18116921238268
O          -0.82685787023075    2.45909852080516    0.17825069809953
H           0.37369892021513    2.84598949452864    0.77627308905448
H          -0.82450317955102   -1.35940132170807    1.02303426476677
O          -0.71549417128442   -2.32804964442838    0.86489851806743
H          -0.80665930351571   -2.75675148120933    1.71689307964292
O           1.60059918359671    0.58208181161578    2.24280411083443
H           0.66399234742173    0.40042519880559    1.96680899044567
H           2.14192215134275   -0.00382654957583    1.70690905943155
O          -0.50897853061622   -1.33034765375737   -2.98950219654371
H          -1.23323721987291   -1.90796889810696   -2.68297943895724
H          -0.79070349298412   -0.45281128402728   -2.69294972529847
O          -2.50287330643012   -2.11781525759827   -1.30453371630687
H          -1.99696513393666   -2.45263489297473   -0.55141253411386
H          -2.47041963908001   -1.15409414081764   -1.21534916282754
O           1.16854575531252   -1.53327401709898   -0.97532252152963
H           1.03634659456831   -0.05946462496386   -0.72457621031139
H           0.60316409637210   -2.00520522466237   -0.33949886312757
H           0.67580435563614   -1.57575021912210   -1.83815712705290
N           1.38553568084835    3.00815432244163    1.23912111583227
H           1.37376171995699    3.78042561215191    1.89789061597368
H           2.04853756094130    3.17393739822680    0.48769437231336
H           1.60242022723533    2.07995601289353    1.71758784646087
