    26
        -50.46899349  Gyration_radius:  2.38332990902 Dipole_moment: 5.754
 S           0.58973842445571   -1.36160111331512    0.31909466902116
O           1.15931274590112   -1.11945557710284    1.62027425240126
O           1.11221303170945   -0.38952125094222   -0.66800733534574
O          -0.87308528896864   -1.27452185614418    0.33671371067839
O           0.98800470808174   -2.76949759825415   -0.15676735933153
H           0.80972160743474   -2.73697472310709   -1.13818209032835
H          -1.47655300000862   -0.05960084577224    1.19650201115234
O          -1.79534843130186    0.78911388519300    1.59915023672016
H          -2.64098144239734    0.58935989953999    2.00352718649518
O          -0.77179875666420    1.61858703146095   -0.87723205481140
H          -1.35128919314968    1.49737735262787   -0.10992135390718
H          -0.26913508225058    0.78879367500166   -0.95797918335806
O          -1.84676283002950   -1.03909510797732   -2.12712924608966
H          -1.89479403183612   -0.08518070083263   -2.23743321665850
H          -1.63339109215436   -1.19486754942661   -1.18440364822340
O           0.54519242006287   -2.16792022337550   -2.62217362926088
H          -0.40335572878298   -1.92304080576844   -2.66675302545491
H           1.00290993781369   -1.34985635725332   -2.38587578120215
O           0.64440093787381    1.20018542032835    2.74341056262065
H           1.24305187953780    1.77544954006881    1.47106964260740
H          -0.31489907103944    1.20675215615198    2.56773665933490
H           0.91123710564031    0.27005150204027    2.56387813209942
N           1.53423505880609    1.93938967975926    0.43520218368843
H           2.37043839972107    2.50361641726002    0.33526887489542
H           0.71824125339568    2.32194084274325   -0.08273327623306
H           1.64269643814903    0.97051629707930    0.02276310848063
