    26
        -50.46235922  Gyration_radius:  2.41930572645 Dipole_moment: 5.446
 S          -0.68734851135036    0.91936564813016   -1.06969205853647
O           0.40352154056815    0.07646158784995   -1.55163900876585
O          -0.23132664803840    2.19073194841320   -0.57508004278920
O          -1.47636491311277    0.18239131661692   -0.06415248863307
O          -1.63254562626501    1.19796998979288   -2.27844480579421
H          -2.04797771589446    0.33618238533347   -2.46721122229716
H          -0.64418191452210    0.82304926429262    1.31031726767014
O          -0.05788696117543    1.16506189023668    2.00919520373086
H          -0.00473016619071    2.10767376414954    1.82728927237839
O           2.41471748436523    1.93471216771443   -0.71164694148759
H           1.47206900107044    2.19368210563079   -0.66459183251429
H           2.47143509711092    1.37019879631664   -1.48702750317868
O           1.54175011628389   -1.53675967673840    0.01139408191168
H           1.10462074330970   -0.96024878931754   -0.71297819054710
H           0.72952058017637   -1.88213051843015    0.59591738406029
O          -2.80204640676136   -1.15982295832448   -1.88257706769080
H          -2.38646391382533   -0.82125288727516   -1.06354927152591
H          -3.75093800933792   -1.06865460987595   -1.77101376433613
O           2.41587061064466    0.33291234633172    1.38795664893959
H           2.60458234237374    1.00008367204052    0.68034515768088
H           1.57152384015428    0.63301371626328    1.79503592897519
H           2.02760098939303   -0.80341240126845    0.63225310806597
N          -0.52383588019231   -2.07855491103045    1.39367483107387
H          -1.01521691839910   -2.95901534449419    1.31855774085448
H          -1.08907606506588   -1.34470510911987    0.96513415663192
H          -0.40727271529587   -1.84893338325613    2.37253340635556
