    26
        -50.44964306  Gyration_radius:  2.49694074719 Dipole_moment: 4.518
 S           0.29788222701460    0.26306371025900    2.08328602769107
O           0.13506849375876   -1.14643707803763    1.85578652768085
O          -0.56658940124216    1.08655646487849    1.23042491176645
O           1.67583916253209    0.72742950957224    2.00677904438359
O          -0.17429208725696    0.54447579984363    3.56533835413487
H           0.16729888805897    1.41804030923374    3.72506578028618
H           2.34347840031491    0.67040829752659    0.60158688834147
O           2.63250598847400    0.70446464382780   -0.35813075867499
H           3.49053369118679    1.13262459986386   -0.36425541729715
O           1.13518130207060   -1.70221797086180   -0.59847111924522
H           0.81213062462820   -1.65648021669979    0.31884413975582
H           1.84567253851543   -1.05525805440288   -0.66490297805757
O          -0.80066638028951    0.77811316992415   -2.75068697084601
H          -1.05886196366374   -0.16782754113808   -2.39834294354376
H          -0.23433429868980    0.63233878341206   -3.51096522532149
O          -1.25386629590899   -1.52335026063943   -1.84901239575768
H          -0.37145609958450   -1.76126672647354   -1.50118552283736
H          -1.81403869058424   -1.41589246969597   -1.03604503273170
O           0.40996452599797    1.89861735124692   -0.90733112524206
H          -0.14171096195776    1.42270494332908   -1.72528806661197
H          -0.05892525749622    1.61673723567177   -0.01781102229397
H           1.32249383735296    1.47759467342777   -0.84344318177952
N          -2.41541377533465   -1.06326996231064    0.51886226167038
H          -2.59291942185953   -0.06966108996962    0.60594784436290
H          -1.58961155525708   -1.25096588617554    1.08423173718744
H          -3.19536350077543   -1.56054222561082    0.92971822297558
