    26
        -50.44964316  Gyration_radius:  2.49673825079 Dipole_moment: 4.512
 S           1.85704650200018   -0.17892202484396    1.00682034840970
O           0.96993036515333    0.98903759753006    1.04491273414650
O           2.04569542753134   -0.69935815227591   -0.31927878771323
O           1.43225371492198   -1.17022750470527    1.98521750958282
O           3.26632517653413    0.34129458971868    1.49884961803369
H           3.12769090062716    0.44951859841660    2.43395630216434
H           0.00277709170063   -1.75676594055072    1.79404924183627
O          -0.96516708682317   -1.97597663305771    1.65012481062753
H          -1.22722143315976   -2.52815354180534    2.38903766242105
O          -0.30139465555020   -1.79412523007064   -1.10991935858960
H           0.61075919142115   -1.50678618641726   -0.92746653250286
H          -0.65515257234725   -2.11126130581277   -0.27202437304918
O          -1.13812077215435    0.41893510509495   -2.41555105662790
H          -0.89083171183723   -0.47759828790849   -2.11327498810368
H          -0.30234220396319    0.94668496228887   -2.31898203701397
O          -2.68677409656425    1.12737664513112   -0.56804657074317
H          -2.05529434473801    0.89995587337712   -1.36535625120050
H          -3.46213476175580    0.57348379322778   -0.67779451948915
O          -1.43833788814253    0.55762616983967    1.48973278259328
H          -1.99603287738534    0.83341861160352    0.58753211125219
H          -1.41607764091185   -0.44633563462359    1.56314359893725
H          -0.44103869558308    0.81882016173530    1.32394189704069
N           1.17877335962938    1.61214488658621   -1.80340208963344
H           1.62861378938418    0.78488158282239   -1.41597273343352
H           1.02509488692242    2.23792511073083   -1.02168470634867
H           1.83096033508449    2.05440674395943   -2.43856463259862
