    26
        -50.44964313  Gyration_radius:  2.49682639622 Dipole_moment: 4.511
 S           1.90021860338494   -0.92046320755867    0.19053222586987
O           0.67871701657514   -1.56988316406971   -0.29840362943819
O           1.68686112102091   -0.14269019303299    1.37987414847972
O           2.55638100795204   -0.19686685558979   -0.88928905227828
O           2.87921961382707   -2.09772737597698    0.58335286871115
H           3.15579891980673   -2.42399863885052   -0.26660868312794
H           1.73687509630895    0.95469458626690   -1.54254226596201
O           1.08373141128231    1.58565094616902   -1.96789593327142
H           1.52069559666895    1.93943985930093   -2.74472884885238
O           0.18545688677154    2.00517958077937    0.69854182336390
H           0.48243540736639    2.16603730587796   -0.20350069564251
H           0.78158747952398    1.32710829174311    1.06294155347651
O          -2.78149680031655    0.31296009404900   -0.98800377233319
H          -3.10809301241538    1.14114532388802   -1.34503529334765
H          -2.58003341425930    0.49292558407604    0.01825910578046
O          -2.15954166038156    0.85124362102243    1.38656520449831
H          -1.38124905963701    1.42618109237469    1.24549866354690
H          -1.78153829685716    0.02507479840294    1.78744108578983
O          -0.63160727867719   -0.34396849955322   -2.01995710114358
H          -0.06659459219923    0.48573307254673   -2.09909318253090
H          -0.12266646849037   -0.92801813217662   -1.31974680899588
H          -1.59467839282384   -0.07414370460865   -1.57252716306668
N          -0.81263445491255   -1.31377704426025    2.20326714302521
H          -0.88116662846820   -2.02811904102080    1.48819748338681
H          -0.86266355979437   -1.76606722499429    3.10732434161202
H           0.11598545874424   -0.90765106480592    2.10553677245091
