    26
        -50.45082210  Gyration_radius:  2.58226855686 Dipole_moment: 7.359
 S          -0.91876575157020   -0.61380865742283   -0.05743358141585
O          -0.10434614579005   -0.90245778935750   -1.21207007098675
O          -1.81423448868246    0.48989157304047   -0.19351058692293
O           0.03843798768538   -0.35300634674351    1.14701141594130
O          -1.65896018234484   -1.86398231419770    0.38555698936163
H          -1.05711193659155   -2.65775751570456    0.09363185438428
H           0.47452927552946    0.55972419052577    1.03163843151278
O           1.13817682085230    1.89027417862612    0.68253839968389
H           2.06960890868693    1.94852223296288    0.90429679808250
O          -1.52154832699951    2.68078588400310   -2.02219063267755
H          -1.99519330082061    1.87012025687694   -1.80447531532570
H          -1.53528570930696    3.19136516808130   -1.19176260172335
O          -1.44690560558806    3.12649056708594    0.68862663204862
H          -1.81195397084205    2.23510886050165    0.60368546573123
H          -0.51520244668309    3.00124454499601    0.90041331457230
O           0.04625211891632   -3.49787178314626   -0.43337943635466
H           0.71815322096289   -3.42086974365560    0.29675160381606
H           0.30519249828710   -2.85609249939743   -1.10962571956724
O           0.87598225930576    1.55876006854932   -1.82467485590784
H           1.08674378700318    1.84935190241063   -0.33804771509818
H           0.60451892341583    0.62613493184173   -1.82887055410378
H           0.06143458744970    2.06810703090628   -2.06222472327493
N           1.63805023850478   -2.86000600116193    1.62143742544312
H           2.63561857796891   -2.72677047504796    1.51504623674017
H           1.48228598717060   -3.39411135265758    2.46685293708877
H           1.20452265362882   -1.94914692147535    1.74077826959498
