    26
        -50.46215566  Gyration_radius:  2.39731024074 Dipole_moment: 4.883
 S           0.92873026246824    0.26075406528856   -1.30490639525723
O           1.49121713560588    1.58678473811494   -1.29364885731274
O          -0.55479576913761    0.31937121776053   -1.28373920018312
O           1.38235392693760   -0.55404827645574   -0.17796272572797
O           1.32305805062042   -0.45527088162720   -2.61212521644056
H           1.01675015145082   -1.39871931602104   -2.44498840633542
H           1.26113193727791    0.10720114966200    1.24794008068247
O           1.12558546016179    0.55201427424426    2.13056130215884
H           1.82371378626374    0.22704016449657    2.70057747552360
O          -1.81489106674747   -1.54899941186951    0.04603768881090
H          -2.71412974943200   -1.50499669066740   -0.28509260785622
H          -1.29153269853338   -0.92078771015078   -0.50741928354851
O          -1.50768636702901    2.01147549714054    0.30709517279394
H          -1.18710931361099    1.39507936596156   -0.45769546566964
H          -0.62645829217143    2.54972828640393    0.55935890307474
O           0.75452120022840    2.92577325323472    0.83145192106537
H           1.02508874872116    2.27269816156818    1.50249226030260
H           1.16292018633863    2.60701199607853   -0.00910923333693
O          -1.57017846332029    0.21653044353955    2.06721043408337
H          -1.65573397499648    1.33853936206520    1.10479982985336
H          -1.67993184904671   -0.57079532073725    1.48856976021397
H          -0.62371363140110    0.24773676365947    2.30427971017782
N           0.53154800344827   -2.74841385343017   -1.68157088946352
H           0.99060389000806   -3.63354059260932   -1.85270810950852
H          -0.46110581607710   -2.91715422285148   -1.57719081472723
H           0.87004427196569   -2.36501248277471   -0.80221733336864
