    26
        -50.46336812  Gyration_radius:  2.48610627904 Dipole_moment: 5.653
 S           0.97174271894418   -0.92703158068602   -1.32061838540786
O           2.09954163572145   -1.10857739032834   -0.44289865447264
O           0.97609969839214    0.32845245003448   -2.03582941194694
O          -0.31371440855225   -1.07905407107505   -0.58442944902633
O           1.00241685089120   -2.09926038653748   -2.36232424575058
H           0.16702481082079   -2.00799451117159   -2.85125596774079
H          -0.98290958698800    0.43610107685981   -0.55906530949836
O          -1.38326783091517    1.33580708531906   -0.54617846086302
H          -1.48615512829819    1.57016795186688   -1.47071680824276
O          -1.74353633275908    1.53020570289356    2.12854122859058
H          -1.74148103856522    1.59493747747647    1.15504205881350
H          -2.39941327627224    0.86658361348236    2.34883884710344
O          -1.62865154906684   -1.72721418751536   -2.77174526840390
H          -2.13746076402185   -2.53278133330233   -2.65906832516742
H          -1.34297579213324   -1.44834033638963   -1.87829412995005
O           0.84803139765337   -1.68131840782455    1.73170247300564
H           0.08820849516438   -1.68294987025790    1.12556886503039
H           1.58734416557888   -1.66222265186643    1.08350214744049
O           1.28409389972382    2.05975681941326   -0.09251172664934
H           1.18964023893677    1.33398844651464    1.31007680525600
H           1.40894652105520    1.42713338449625   -0.83556713595844
H           0.37123597508062    2.35841950786979   -0.21215909153350
N           0.88272336730293    0.89574489973012    2.23505992423167
H          -0.11095907172621    1.18151273463103    2.38294608969948
H           1.47718625015024    1.20823686475731    2.99456952064730
H           0.91628874369128   -0.17030329844332    2.12681442079273
