    26
        -50.47319292  Gyration_radius:  2.45113794571 Dipole_moment: 1.786
 S           0.19916261434216   -0.68136428214620   -1.38948807408613
O           0.26911345917242    0.75859273664549   -1.61672124319987
O          -1.15813768138055   -1.15094629221687   -1.26986810176333
O           1.00176839412650   -1.06231527472234   -0.21232233232204
O           0.87500866028076   -1.34257741523054   -2.62915532805130
H           0.95644570751465   -2.27993002498091   -2.37115295742040
H           0.17519543522823   -0.73236906259228    1.16744552584625
O          -0.30846441192699   -0.51811279259267    2.00138267367354
H          -0.12826817941335   -1.23872291903692    2.60710048014293
O           0.27635783844790    2.19319601497661    1.85728356565363
H           1.09438603651697    2.08290739543917    1.31991070361394
H           0.07759240756777    1.30291275984288    2.18969799395386
O           2.17865809597658    1.44495585791046    0.12666971685601
H           2.36322791785144    0.53323375799662    0.37374649932610
H           1.59081742243071    1.35446066476693   -0.64663972590861
O           1.29871207549799   -3.50165620573987   -1.15143388534095
H           1.20891252464950   -2.72152018742476   -0.56942335289767
H           2.21275346431337   -3.78921034076657   -1.09336184242195
O          -2.67160137369150   -0.09098148278086    0.61517387556965
H          -2.07443739083338   -0.30924420220912    1.34887156772012
H          -2.11835345304836    1.32760507127484    0.18634414660280
H          -2.30646855019476   -0.59772420214237   -0.14292282377838
N          -1.44659405168992    2.10282826811728   -0.11353882584945
H          -0.81007933910162    2.31674251965510    0.72008175526748
H          -1.92580041348029    2.92542130112566   -0.46055983025637
H          -0.82990721913149    1.67381832683706   -0.84712018097805
