    26
        -50.47136196  Gyration_radius:  2.44304019436 Dipole_moment: 2.088
 S          -1.80768152481360   -0.97164967656603   -0.31155647627823
O          -2.06361680244699   -0.06645958928880    0.80943014266788
O          -0.79390943944900   -1.94702521503292   -0.02317967301906
O          -1.56529328813982   -0.21994597225313   -1.53732767594018
O          -3.16201631404450   -1.75739311033252   -0.54321611874100
H          -3.76551987166173   -1.03806223092028   -0.69230023740349
H          -0.02615540992287   -0.14917980730933   -1.99683590222602
O           0.92068537314875   -0.05300993704541   -2.28082719384668
H           0.91362807893132   -0.10298110253367   -3.23770250936528
O          -0.33031300653424   -0.05633041510951    2.76807006151828
H          -0.99913667382709   -0.20185982287640    2.05779895445701
H          -0.61572526728497    0.73761152552419    3.22506862468954
O           1.80981781713422   -1.88678818725714   -0.43472729666282
H           1.73029858885521   -1.33393853674077   -1.23114425603357
H           0.88418197748335   -2.14569249681669   -0.24653896724206
O          -1.19072297447245    2.20777514497717   -0.22275635270400
H          -1.42583314384548    2.01481244301465   -1.13529853692002
H          -1.54039154409200    1.43747182418600    0.27030547478706
O           1.45488512636298    1.90233299825739   -0.41536352647845
H           1.81803314438773    0.87437674693916    0.71118374728413
H           1.42307751511510    1.33059432287220   -1.20176260340187
H           0.51777770626331    2.16835734434959   -0.26731955383520
N           1.94511154376754    0.02875186600752    1.35269888350284
H           1.97495715488599   -0.82580602179000    0.70802102744430
H           1.10085854377851   -0.04747051471669    1.97220773081639
H           2.79300267048411    0.10150844048404    1.90307226285055
