    26
        -50.45596419  Gyration_radius:  2.43497092965 Dipole_moment: 2.389
 S          -1.49359187195006    0.27329404666693    0.40452888891034
O          -1.63739991069472    1.63131491349481    0.81444183623734
O          -0.39393763453549   -0.43700301292863    1.02208453663221
O          -1.29702703059713    0.20884636351015   -1.13794881603837
O          -2.77786025547524   -0.50842892421659    0.59669835945548
H          -2.49604137281357   -1.50098029858702    0.50217815517532
H          -0.44895785686505    0.70718100767744   -1.39746040036454
O           0.85337881866881    1.45876118826229   -1.67967940306077
H           0.76756953856737    2.04623949424857   -2.43326677106831
O          -1.79572301252521   -2.80380099508010    0.36327821990881
H          -1.05078068038608   -2.69708145068396    0.96336753633021
H          -1.40273323103520   -2.82021599506763   -0.55424488838229
O          -0.60392469548868   -2.44986049648202   -1.94711737812826
H           0.27602690555993   -2.14480678157106   -1.63432343182788
H          -1.06018447774149   -1.65672328133062   -2.24393972954945
O           1.47462757196531   -1.18049838913345   -0.78839983975961
H           1.63332881628419   -0.34661624106249   -1.24533209975040
H           0.91043840919172   -0.95493784536712   -0.02872451441115
O           0.77450315818347    2.84505159090414    0.45205495838282
H           0.91183535229547    2.06054210224528   -0.85601331919154
H          -0.15104181843762    2.66245359511736    0.68644743599850
H           1.30777323384172    2.33105558753587    1.10871380557286
N           1.89619396411460    1.05201810444152    2.11842118529316
H           1.10890460893899    0.42715774617542    1.96203070444948
H           1.95685673150883    1.23416608516770    3.11189850429878
H           2.73776675935874    0.56287189605211    1.84030646487970
