    26
        -50.46576495  Gyration_radius:  2.49384965525 Dipole_moment: 1.856
 S           0.52578378289952    1.31333625896191    0.27610698087345
O           0.20705751980729    0.56795168691926    1.49401455815294
O          -0.63945428426110    1.44559722784815   -0.56624119191186
O           1.66185737427867    0.69914401732486   -0.41851227157337
O           0.95924619840515    2.75156136057133    0.69924025201461
H           1.81831126713430    2.59637776682209    1.13618505923229
H           1.39912690221048   -0.81308141789341   -0.95912710935036
O           1.18942520566697   -1.73448451991553   -1.25197427290000
H           1.98015868200329   -2.06756339284564   -1.67922756641339
O          -0.94592917302525   -0.43836507741272   -2.49652373253182
H          -0.68174362914604    0.35210256020716   -1.99306894068801
H          -0.30813121815018   -1.11880339981836   -2.23923108648966
O           3.33393474712228    1.74665053160740    1.29767347353410
H           2.89366980026026    1.16450409738374    0.64452862153489
H           4.08445697908082    2.14349281773647    0.84978340058335
O          -3.09795863372911    0.13646696999367   -1.05307189134178
H          -2.76505799341399    1.03952863719755   -0.98298682300702
H          -2.50331139588477   -0.26301601033301   -1.72876143561207
O           0.06789993649321   -2.27871281557195    1.17158438594100
H           0.44880204147843   -1.47552252934366    1.55464160446374
H          -1.50603959710006   -1.58818385024450    1.11601458587895
H           0.44324161662280   -2.32393687718791    0.27459837371682
N          -2.05014025386111   -0.69654441894353    1.20337542483653
H          -2.54226231977385   -0.42880636746114    0.28895386169661
H          -1.27302148249904    0.00424693589029    1.38089728211975
H          -2.69992206259729   -0.73394021149613    1.98112846725501
