    26
        -50.46576493  Gyration_radius:  2.49390576141 Dipole_moment: 1.855
 S           1.20467756357769   -0.67775414382096   -0.40847016870283
O           1.36034635068620    0.02629444551672    0.86458993955810
O           0.80447201462828    0.23315098375519   -1.45489559545072
O           0.28516636266394   -1.81032591760154   -0.25911514846974
O           2.59868596964304   -1.25707961429358   -0.80423739715762
H           2.73572881266146   -1.95837518669545   -0.13909453744274
H          -1.24061643434283   -1.40729943326027    0.13768819441170
O          -2.14762555649053   -1.10617862769578    0.39346125579187
H          -2.67874934613264   -1.89894075564216    0.48391061756501
O          -1.86342131492420    0.44106064179362   -1.91165621164973
H          -2.25040278490506    0.00617245009742   -1.13892076727764
H          -0.93208254866566    0.15697885835431   -1.91537479715491
O          -0.51025081977270    2.71905788060701   -1.75290550193613
H          -1.24360522084958    2.07178639109118   -1.86693305877193
H           0.24534912055770    2.25484449585731   -2.13353137037904
O           2.14918396968403   -3.22648823936613    0.90641219869085
H           2.18417026132395   -4.11504562430852    0.54500770073935
H           1.29290996294960   -2.84307370678533    0.62514478379515
O          -1.09044963622847    0.59518166191145    2.24176741363969
H          -1.67687240050709    0.04742723526312    1.69083067171694
H          -0.22355370296809    0.17034889877573    2.17139293213646
H          -0.56485411608156    1.97070067746022    1.35368530839234
N           0.19907872420816    2.35349548637349    0.74657414419264
H          -0.14301081599640    2.57871434372772   -0.24445291139863
H           0.85645472469689    1.52202858777172    0.69109755398988
H           0.64927086060926    3.15331821106487    1.17802476116603
