    26
        -50.46192236  Gyration_radius:  2.4260553621 Dipole_moment: 4.596
 S           0.61564446818038   -1.08954490247268    0.61450573797411
O          -0.79967202444347   -0.67237964693462    0.64039165702308
O           1.45573377238652   -0.08683491869366    1.22365531233901
O           1.00630095616288   -1.39395024399384   -0.76082497721413
O           0.72000281652073   -2.38818932876024    1.45486635444958
H           0.13431002698947   -3.00872226113300    0.94658479014443
H           1.28550580948426   -0.08232181492708   -1.60627863031010
O           1.34769175636301    0.77596327206204   -2.10961239381564
H           1.88697220002641    0.59284436933000   -2.88030281766472
O          -1.23433627085435    1.09926337760010   -1.25184729488024
H          -0.44135435178183    1.03141716387547   -1.81060271366446
H          -1.16931119684883    0.34646647603584   -0.61484243427668
O          -0.58521823233199    2.85410890228720    0.43257841022558
H          -0.85216472172464    2.35632660700812    1.28514198204695
H          -0.95451225148155    2.24152970087816   -0.33023005458314
O          -1.25325633334928    1.26923949743703    2.31216662053873
H          -1.01579806792234    0.46179739951149    1.78804744067968
H          -2.18098082246242    1.18105898710576    2.53915734028283
O           1.80436570205416    2.24415044611520    0.13178811992984
H           0.48232429108796    2.71430885004309    0.34703640369645
H           1.81471373582738    1.41883950288491    0.67894903032534
H           1.81417738644155    1.91115145478852   -0.78606181401612
N          -0.84964508024011   -3.47956227412099   -0.32787460949206
H          -1.73454468636519   -3.00330639045636   -0.20940413632325
H          -1.01882162025153   -4.37991603197151   -0.75769417661147
H          -0.27812725147250   -2.91373820351369   -0.94929313681401
