    26
        -50.46357878  Gyration_radius:  2.38512717411 Dipole_moment: 4.786
 S           1.54376184192297   -0.17900572956608    0.57560275802952
O           1.68715002894457    0.41213085471638    1.87843872447915
O           0.89179194136222    0.70936970744662   -0.38772751171296
O           0.59189985049015   -1.44405536143408    0.71923612617750
O           2.75562523374297   -0.73417035962241   -0.01775078828652
H           2.32153819341743   -0.77290635939044   -1.40783925322510
H          -0.23677610764113   -1.17715735015241    1.20039493028667
O          -1.62715439020769   -0.75600357776444    1.90632255846893
H          -1.81645635444522   -1.29413276607376    2.67641434085163
O          -1.01990386014668    2.38765718938627    0.03516705609804
H          -0.79118105466985    3.22864153120068   -0.36153721303559
H          -0.25068278630050    1.78132727748119   -0.12488917898783
O          -0.46445048509315   -1.74834203799591   -1.77338599821126
H          -1.16951619071834   -1.08091452740457   -1.58899734917912
H          -0.15504599414141   -1.99997552175881   -0.88838838656781
O          -2.24888212244907   -0.03046725258012   -0.76822245543159
H          -1.96284087515199    0.88729321676278   -0.64933281373966
H          -2.28730419482210   -0.39208560108167    0.12735158697049
O          -0.62821663713418    1.50136804417443    2.61328163310093
H          -0.85494103448984    2.04060525031827    1.83649512267108
H          -1.33995152574880    0.14820331065709    2.25489320193431
H           0.29990625333635    1.21327657203224    2.47572371387469
N           1.83419884311411   -0.70032815794428   -2.38923279671994
H           1.71985442648701    0.29357870944488   -2.57103785559762
H           0.84808468122027   -1.12946986292151   -2.24744822048831
H           2.35949232914824   -1.16443718790203   -3.12353192174204
