    26
        -50.46357878  Gyration_radius:  2.38520413553 Dipole_moment: 4.785
 S           1.17753875230632    0.45459730291642   -1.07410476669756
O           1.14098740761254    0.15106498164864    0.35727128266097
O           1.11506921070454    1.86382715696809   -1.35236900593057
O          -0.11891771603935   -0.22083364760172   -1.69873562861447
O           2.27392647903073   -0.27811192683119   -1.69881005662039
H           2.26826225105521   -1.45451105774422   -0.83995394520935
H          -0.92543614023585    0.27608744197244   -1.39531241753624
O          -2.25762220689738    1.01216068792969   -0.85507500885306
H          -2.81701311771317    1.31307444555930   -1.57275418831558
O          -0.19315909420265    1.35619065159032    2.20592821010864
H           0.38919622618718    1.53698574416568    2.94424713359149
H           0.36191161263688    0.91898159949048    1.50892276946638
O          -0.45321838171565   -2.48431202368898   -0.21988343671945
H          -0.50637018133863   -1.89393732075013   -0.98856616557627
H          -0.93773823766627   -1.98870351120865    0.48439297110633
O          -1.82492049157709   -0.77419692199388    1.31043357283874
H          -2.22987756124205   -0.25959567926589    0.59938498941426
H          -1.31561422551832   -0.12750190973449    1.82088384074486
O          -0.85565147722872    2.95680743840421    0.06493223181760
H          -0.67002112380464    2.62612261615691    0.96033551497793
H          -0.06471338768608    2.73242953191970   -0.47115131296395
H          -1.81735872801210    1.83762331539594   -0.47247424044929
N           2.13184465397550   -2.23762129473338   -0.08208256734598
H           2.67620953097173   -3.07192325633456   -0.27749377526539
H           1.06477592546105   -2.43116736386691   -0.06396771363309
H           2.38791001093004   -1.81353698036934    0.80600172301960
