    26
        -50.46357875  Gyration_radius:  2.38518456393 Dipole_moment: 4.786
 S           1.57557108618070    0.34227058518859   -0.38333742179183
O           0.87549786194639   -0.11016392722830    0.81977613543169
O           1.81420032629866    1.76006330699465   -0.39611235923670
O           0.61543850387039    0.00120409893713   -1.60356682974721
O           2.73684446228288   -0.50914193989223   -0.61945234217836
H           2.21069178835938   -1.75322825788897   -0.07448290176523
H          -0.17522920712783    0.60419403742378   -1.57632667244894
O          -1.50858045061344    1.51316869845805   -1.51219283236771
H          -1.65371328924076    1.99472614430843   -2.32802089296283
O          -0.97830710871145    1.10752682649892    2.13525707428137
H          -0.23098848781187    0.65521942732867    1.66408255602400
H          -0.76313487102757    1.08904610697072    3.06815722513142
O          -0.60833875466386   -2.31107594672811   -0.84364879285179
H          -1.28929945628985   -1.81629089084825   -0.32609452881138
H          -0.24515180373787   -1.63738561299245   -1.44073338376640
O          -2.29491253629887   -0.55795815353348    0.26541390747965
H          -2.27927734352438    0.10186906073692   -0.44083451558053
H          -1.98805120195323   -0.08227989060544    1.05136470716806
O          -0.42989738890920    3.03835438960034    0.24956012184526
H           0.48242946532900    2.73051102764421    0.05927373168379
H          -1.18494287561333    2.19088274430754   -0.83575275276541
H          -0.69931751677878    2.57850501695626    1.06289272282125
N           1.66048144164068   -2.57762024382116    0.39866079822064
H           1.54916726292585   -2.31464682639200    1.37463297234433
H           2.12921160424145   -3.47219376587851    0.29569270958215
H           0.67960845921765   -2.56555601555027   -0.06420842574486
