    26
        -50.47441758  Gyration_radius:  2.50844617994 Dipole_moment: 3.660
 S           0.63473593823349    0.63328604803133   -0.65558037641994
O           1.34156970701418    1.65522827355925   -1.56986507632022
O           1.61497999555546   -0.36913376270972   -0.26829623227975
O           0.15556010813771    1.35418902186136    0.53716037907108
O          -0.48413801694570    0.04926743059957   -1.38127762202141
O          -1.51933472422092   -1.92814793639760    0.04053848445105
H          -1.32819841083021   -1.19652515512566   -0.58641891809359
H          -0.79251917639290   -2.55969732633878   -0.12105032678772
O           1.85686832782049   -1.71129443989547    2.05273258118650
H           1.79343159984973   -2.58410772590616    1.64992846241271
H           2.03885879535328   -1.11128655276741    1.30360589592081
O           0.94943037101365   -2.92503831806107   -0.48141308884928
H           1.22732663671010   -1.98123090658172   -0.50105211846889
H           1.12385589503826   -3.26934927356174   -1.35829395397903
O          -1.40095393057378    3.38034923396158   -0.16355952283798
H          -0.86060088767308    2.63523941435329    0.17700120713714
H          -0.94779297478376    4.18236073524763    0.10229741021937
O          -0.86964305790681    2.40474655357759   -2.61153996382320
H          -1.12960735700389    1.48331725163181   -2.45801901444059
H          -1.24426197855866    2.90788521951358   -1.85815748277038
H           0.58410875756186    2.06849707485662   -2.08520004958516
N          -0.56668718773427   -0.62354955210287    2.08459188697012
H          -1.11305788839151   -0.44418039565194    2.91965027123926
H          -1.09433578672412   -1.21878532355530    1.36140952426559
H          -0.31807039386022    0.27217896670816    1.57645074520807
H           0.34847563931051   -1.10421857524955    2.29435687859230
