    26
        -50.46192228  Gyration_radius:  2.42610056109 Dipole_moment: 4.598
 S          -0.80358382216428   -0.55031179396888    0.99711306631978
O          -0.86274737661091   -0.73542007638527   -0.46588009249506
O          -1.05786651347755    0.82579798046660    1.34919395786921
O           0.48351575278174   -1.03217212933570    1.49494234600961
O          -1.92719066514094   -1.42537203955737    1.60980028331659
H          -1.64980742095841   -2.33807110002653    1.33306748079412
H           1.65247886597358    0.00582425911346    1.22986865347968
O           2.35751148413833    0.65043095736705    0.94499556377150
H           3.10677468413229    0.49606174123154    1.52213418094846
O           1.36108727759436    0.14372289591268   -1.55673457170226
H           1.95915146461873    0.24794018528987   -0.79706018879021
H           0.56565379851279   -0.32182443704264   -1.20000273673070
O          -2.03244423765698    1.23923617491291   -1.69106303222557
H          -1.70602166174904    0.48298050516760   -1.13906107637211
H          -2.36296969174085    0.85610519943747   -2.50590046795524
O           0.23885736202447    2.39271250755642   -1.70036952541143
H           0.78528622106377    1.50457453895988   -1.77825477157085
H          -0.73287282034827    2.07767825198034   -1.75303302876749
O           0.60885572972701    2.72116297156014    0.73463368438989
H           1.41113518021902    2.18723651372992    0.89144565808316
H           0.39002720831077    2.66914775199400   -0.66781421576644
H          -0.12300400121582    2.14596893614904    1.07240740226628
N          -0.63695978744700   -3.48166463146971    0.64070384618997
H           0.15947190813645   -2.92533461541191    0.93933083310002
H          -0.71976519055573   -3.38160107068763   -0.36284177306185
H          -0.46457373820859   -4.45480948695361    0.85837853430591
