    26
        -50.44164651  Gyration_radius:  2.64820422411 Dipole_moment: 2.669
 S           1.09098093368487   -0.31452726007957   -1.39590073292829
O           1.90540747995581   -0.49708451902941   -2.54975149442562
O           1.46920994396964    0.77768365285726   -0.53995305207209
O           1.07201006252098   -1.62483392008215   -0.53241958338777
O          -0.38620987736624   -0.19519338200083   -1.77630453388176
H          -0.96015250563894   -0.69222455739341   -1.03671307833581
H           2.05133451482568   -1.76469353528579   -0.33156089084119
O          -1.71303151410900   -1.37191620110647   -0.02826379404779
H          -1.15074444886739   -2.12792923518759    0.16078540390899
O           1.07679437698777    0.78623601029998    2.07371585162114
H           1.13505692291990    1.70816567013775    2.33305656540209
H           1.25253661655867    0.77264500062075    1.10923578800600
O          -2.94281512237758    0.99193249359037   -1.39705779146472
H          -2.10626815676885    0.92095531787758   -1.87059053658432
H          -3.11936633321967    0.11011775027370   -1.05362291748046
O          -2.48736380394171    2.39214515522210    0.87923354285117
H          -3.31274825302645    2.79251365869941    1.15587552043599
H          -2.65345500000227    2.00077139187334   -0.00415004168336
O          -1.53219727424213    0.13518145663354    2.01293894152997
H          -0.57214784956216    0.28797342252280    2.14901733125839
H          -1.89019860522299    0.99759941290746    1.71592002622149
H          -1.67888151511132   -0.78637898786721    0.81583776497998
N           3.63520437507603   -1.44095047834046   -0.40727059777600
H           3.59255347195634   -1.07683298889239   -1.35441328913554
H           4.38957336462577   -2.11286676734531   -0.34294756278972
H           3.83491818631965   -0.66848857095056    0.21530316065567
