    26
        -50.45599947  Gyration_radius:  2.47910331496 Dipole_moment: 2.525
 S          -0.25910162237302   -0.36482157906125    1.40950290602154
O           0.89221304677039   -1.14255220065429    1.01051320095620
O          -1.44655137752697   -1.14384762067669    1.60967154164832
O          -0.52063834613204    0.72306506680184    0.35287479438547
O           0.05139098362908    0.44221897766919    2.65573238326848
H           0.82332103252925    1.10079615363253    2.42461522044412
H          -0.83378295812986    0.29311788685634   -0.53867658399264
O          -1.34562673097350   -0.46167819374093   -1.70789049307028
H          -2.27677691760662   -0.55484950218485   -1.42142694632539
O           1.96738136271271    1.93280680756537    2.02433985465696
H           2.67590863130850    1.82258546143774    2.66290761706190
H           2.29337448102102    1.50332990388798    1.16533595071032
O           2.66231814639832    0.59755421865118   -0.05380312800269
H           2.18745665732963    0.91887643475707   -0.85783570877236
H           2.17775325156543   -0.19381941427987    0.23439297353307
O          -3.47301501571379   -0.87152948958923   -0.13633063887076
H          -2.82834701048245   -1.04368666558036    0.57723053424995
H          -4.13639347044631   -0.28866307325133    0.23555645983041
O          -0.40850262708230   -2.72476037555754   -0.70804937332235
H          -1.11709957593540   -3.07168242850638   -0.15997945224381
H          -0.95767381492019   -1.35784498006536   -1.55605941592349
H           0.22505208118082   -2.31568567159598   -0.09166283032440
N           1.11129026156431    1.45497348189291   -2.12267763192288
H           0.54983045564270    2.14580356138408   -1.63980700256689
H           0.48527162420192    0.71434988170507   -2.41697489370997
H           1.50094747151047    1.88594334847114   -2.95149932772386
