    26
        -50.46292945  Gyration_radius:  2.50927709314 Dipole_moment: 3.625
 S          -0.65022573164243    1.93720884895215   -0.17753499595198
O           0.66552636196588    2.03657095536055    0.45739510334319
O          -1.47856466251016    0.93453773284659    0.45994142566052
O          -0.56440507534058    1.83067750742693   -1.61564836400561
O          -1.36752303794500    3.32648332782792    0.11663366136178
H          -1.03577918130541    3.88683906091859   -0.57727153700191
H           0.09118510886174    0.50373989253996   -2.27425354445190
O           0.57391526328238   -0.27578764634362   -2.64493832813600
H           0.76157751975966   -0.05718525133365   -3.55932188922551
O           0.94950950664015   -1.60758258174349    1.78065576573841
H           0.09183896786516   -1.88482545686573    1.36130304594467
H           0.48719114272463   -0.36161447417773    2.36842757628240
O          -0.65111184437334   -2.61603182119966   -1.94970233172538
H           0.07266147982929   -3.24302773439228   -1.90185020116241
H          -0.26745990316152   -1.77407306774814   -2.25883181654504
O          -1.36241932175926   -1.83104886578267    0.55871384706867
H          -1.57697369117866   -0.89361835527634    0.43682566804719
H          -1.24835346567424   -2.19431990030219   -0.34092413862805
O           1.99287395089042   -0.22683062069928   -0.25400362442628
H           1.49002676940954   -1.25646227677262    1.03660510241754
H           1.65845452235458   -0.40464492462827   -1.14512487977808
H           1.66050753808335    0.65967581658344   -0.03130106916096
N           0.03946574816911    0.64307209573680    2.55963371162561
H          -0.88748136738635    0.63677124449520    2.09509703359124
H           0.55472680462376    1.32864487133099    1.96126335541992
H           0.00083660766910    0.90283162334145    3.53821143343753
