    26
        -50.46292942  Gyration_radius:  2.50912277811 Dipole_moment: 3.634
 S          -1.92426878598437   -0.33093357744264    0.62984517044455
O          -2.04041184957163    0.67044243541528   -0.43205690427559
O          -0.88402810303342    0.01159127163216    1.57782700068343
O          -1.85799430939210   -1.67900570360326    0.11500462097296
O          -3.28623395099037   -0.24078531609471    1.44712462550499
H          -3.87311284424805   -0.79302285234288    0.94101092315024
H          -0.56592161814492   -2.13461459164164   -0.74932928995902
O           0.19109375549229   -2.35740478229071   -1.34547948047294
H          -0.05568802392717   -3.17033660975432   -1.78973456018037
O           1.87944841577498    0.09338786493094    1.40829870951206
H           0.94497140261333   -0.07145131582459    1.60642724261438
H           2.21643273301779   -0.73616769000169    1.01757633619725
O           1.62889460924228    1.95408467129104   -0.42553261773905
H           0.41126967982678    2.39819153816490    0.23158227384246
H           1.91705295106327    1.29297804110181    0.25871870813786
O           2.58169910077391   -2.09551867886692   -0.05058186383186
H           1.72165849434429   -2.26363691860748   -0.47920324918642
H           3.18714286028144   -1.83861212230136   -0.74822594038405
O           0.16875797171544    0.34891100453013   -1.98297891750870
H           1.24432303834412    1.41175293871155   -1.15153128593577
H           0.33120978007292   -0.60449355850051   -1.93606809135254
H          -0.70281790550049    0.47771716389644   -1.57096884438255
N          -0.57611966319515    2.46396087092825    0.74851719678838
H          -1.29033639264178    2.06127369011135    0.09975737112973
H          -0.80805397976037    3.39014030054760    1.08772625009053
H          -0.55896736609465    1.74155192603791    1.49227460603418
