    26
        -50.47441757  Gyration_radius:  2.50848455665 Dipole_moment: 3.661
 S           0.63180675494868    0.21236735674990   -0.88875252683218
O           0.50514017435990   -1.21673378237972   -0.64117876615503
O          -0.62050872443089    0.79991129076359   -1.33843967982549
O           1.10524555236579    0.90535245597553    0.32272329570747
O           1.68148809129291    0.43397216014976   -1.99730574703922
O          -1.50661963908849   -1.64579874277995    1.02376760309145
H          -2.21414235788790   -1.46637780906080    0.37530931456131
H          -0.69569822341617   -1.68342221049658    0.47069014151620
O          -2.53517562407741    2.03837028223942    0.09260798944731
H          -1.81491579424936    1.87082178669646   -0.54570891172431
H          -3.24095885506262    1.44280454007527   -0.18171953712480
O          -2.83471407157256   -0.63856348931068   -1.11682078955244
H          -2.97016008735913   -1.20835290150058   -1.87502468255900
H          -1.99855741519528   -0.14988303857397   -1.29124290118953
O           3.52512063451773    0.06094275310267    0.99327380921387
H           4.11672380680087    0.80882129743097    0.89336751162965
H           2.62050954129740    0.40393612229524    0.82815351035915
O           3.12494270273289   -1.50170399145024   -1.15708928266992
H           2.36448983838908   -0.28075851513796   -1.81650319780222
H           3.48374936273846   -1.09679703579964   -0.33948309939733
H           2.27167273278735   -1.88376629436221   -0.89994618809412
N          -1.00557437309583    0.77123857552330    1.85700065284076
H          -0.08267962930005    0.90481721326702    1.35428146829583
H          -1.70636603872241    1.37138761133694    1.34590375462717
H          -1.26851605486683   -0.25788406055088    1.69104588208661
H          -0.93630226390691    1.00529844579708    2.84109035658816
