    26
        -50.47136186  Gyration_radius:  2.44274724349 Dipole_moment: 2.082
 S          -1.97710204285302    0.15819256531385   -0.61098411288384
O          -1.84362757135221   -0.96429922132600    0.27475905713958
O          -1.22375706704703   -0.00413018220234   -1.85498029334941
O          -1.66945037117483    1.43820422389363    0.01608732875701
O          -3.49839628362761    0.23816167253068   -1.04076209342265
H          -3.47830273801914    0.97433368349088   -1.64200668588724
H          -0.70325736424453    1.35164012925350    1.29828247377420
O          -0.07418691271277    1.33255460426854    2.06660958351441
H          -0.39423673568786    1.99203747150630    2.68370851787180
O           0.59057992544187    1.89683710941109   -1.54632534926520
H          -0.01872952783061    1.16601875883701   -1.77724239443067
H           0.03344330844921    2.50403166557888   -1.05026758574480
O           0.55003800660640   -1.92453550380677   -1.93779252202129
H          -0.21533622741617   -1.30532617513943   -1.87693665948405
H           1.02061945501811   -1.66713153041581   -2.73341932681301
O           2.14282576645246    1.05257779547866    0.45579284604910
H           1.50903077863551    1.27109291437990    1.16068924709562
H           1.72156090177552    1.39278854154551   -0.36736279840786
O          -0.14513431961648   -1.41085679338721    2.24135750185324
H          -0.06497070788638   -0.46743457486064    2.46450055425984
H          -0.89594567477815   -1.43084946559398    1.61280514169464
H           1.01033548475924   -1.61936050806776    1.20152040611154
N           1.74812968166877   -1.53964291916958    0.42955735080695
H           2.53901561653881   -2.14545103113602    0.61559709944678
H           2.03684357844518   -0.51057901131064    0.40618372907889
H           1.30001107045696   -1.77887422907267   -0.48937102574304
