    26
        -50.45693075  Gyration_radius:  2.51191012905 Dipole_moment: 5.082
 S          -0.77351293166476   -1.44823992734333   -1.54405483821471
O           0.60386810607050   -1.77023893522219   -1.86005232909391
O          -1.05624515122549   -0.02559220690080   -1.74675085071544
O          -1.20024760752646   -1.89670808932701   -0.23766415689259
O          -1.65997768311145   -2.23125059067246   -2.60141298274851
H          -2.53997484100109   -2.22931503907492   -2.23406472915352
H           0.14635710239331   -1.65912584455554    0.63775743010844
O           0.98337554424464   -1.48463506521761    1.13069389739159
H           1.54790378220358   -2.23685687114902    0.94535903869388
O          -0.86516813853986   -0.17366517802316    2.87293641015963
H          -0.21725053009644   -0.77386279221663    2.48477875072637
H          -0.44088468264410    0.68971595732100    2.91334517428903
O          -0.00366204163994    2.38706449900851    1.56874044193969
H          -0.21776907626942    3.31953303728890    1.57950387483874
H          -0.78989066625673    1.92239354785005    1.16881817367211
O          -1.98969191902931    0.98010719921854    0.59245836841951
H          -1.92877978044477    0.29197999346769    1.27661774234360
H          -1.74193688371204    0.56287665874966   -0.25052333558925
O           2.03823199766625    0.95851386279796    0.61709512318281
H           1.76461037978100    0.88825623622514   -0.85968597991042
H           1.38228765788960    1.57093350029571    1.01495519166219
H           1.75576723270278    0.06598645541126    0.90577559656001
N           1.42553628152202    0.67205068079864   -1.87257686514111
H           1.45257074629868   -0.37173033682729   -1.99765707643485
H           1.93410621361279    1.17814114558678   -2.58854225582551
H           0.39037688878381    0.81366812250913   -1.91584982427913
