    26
        -50.45677429  Gyration_radius:  2.47315935783 Dipole_moment: 3.912
 S          -0.98586775984137   -1.35712833912884   -0.19437392087120
O          -1.74563160586385   -1.35097683976066   -1.40816443687846
O          -1.44059723218788   -0.39097259250609    0.78260383366113
O           0.50289511878966   -1.07430035401896   -0.50313444721018
O          -0.93945356881309   -2.74858134502464    0.39801140085819
H          -0.09869578578629   -2.78728880185678    1.01742145080955
H           0.60213869593377   -0.17802534940198   -1.02644138947769
O           0.59292260188773    1.10556654305293   -1.73701883895112
H           0.01672939793967    0.92365056138811   -2.51333959581261
O          -1.29954796262718    0.32704855717784   -3.42964323528213
H          -1.19907858539351   -0.18796972556031   -4.23186080482467
H          -1.61124476896576   -0.29686122817086   -2.74324816482232
O           1.14730203428103   -2.63219911429555    1.76863889333192
H           1.79925280628813   -2.41395785920165    1.09665153596771
H           0.96744006433278   -1.77400635545005    2.26651766547935
O           0.49152162484402   -0.31615974959058    2.68420235360395
H           1.03446186658564    0.39533502247528    2.27002217617075
H          -0.35336140074448   -0.28537964975054    2.20744995821450
O          -1.13421976833953    2.13320774427802    0.02658310895912
H          -1.97123142613404    2.45781747888263   -0.31082179081899
H          -1.31632937410578    1.24377257098336    0.39950225625553
H           0.04135217429376    1.66001834317455   -1.14128904688683
N           1.67470064883718    1.67664375990065    1.25022084696441
H           2.04147729741531    1.35389785731088    0.36289166401088
H           2.35063327428899    2.31095740205904    1.65674417664300
H           0.83243162306113    2.20589144297066    1.05187437090381
