    26
        -50.45958877  Gyration_radius:  2.42003723933 Dipole_moment: 7.268
 S           1.18464206575208    1.39824870379316    0.31145393864645
O           1.72058686787636    1.38856491703378    1.64310160964386
O          -0.25830348368804    1.63835881665828    0.26686703085427
O           1.52935033519418    0.23184058148649   -0.49188331077033
O           1.85612350455962    2.62763239013297   -0.43305641395365
H           2.06047475435263    3.17593460436277    0.31580257649569
H           1.01732830079888   -1.18803032049173    0.10734056806619
O           0.64089711559954   -2.02428795693616    0.47202387698692
H           1.29525750083601   -2.70896793860187    0.32747672088624
O           0.41717278189900   -0.62121514297699    2.91672748129044
H           0.95863151656642    0.13128856566512    2.62006428363827
H           0.53716234771176   -1.31089908259503    2.24945098953839
O          -1.93548365708254    0.27983434879489    2.02270190482383
H          -1.21049528625625   -0.07678989781512    2.58137890490265
H          -1.51754829087044    0.99609972408495    1.52242032409126
O          -1.61184156979834    0.42637000488086   -1.48978097985605
H          -1.11213652430662    1.01810571182853   -0.82666741323297
H          -0.88357113840081    0.13514879093229   -2.18678066982572
O          -2.00769381080710   -1.44509001281814    0.08270396328313
H          -1.86246391894402   -0.43842816652747   -0.87817575343286
H          -1.12864680231134   -1.84408310523837    0.21132905860273
H          -2.14740804492446   -0.87198287403462    0.89562390310532
N           0.36515251925161   -0.19124109058545   -2.97976780858504
H           0.59807051311293    0.45829066333273   -3.71909225669825
H           0.47174002066855   -1.13257610747299   -3.33410170328216
H           1.02300239318025   -0.05212610690281   -2.20716082519512
