    26
        -50.45677420  Gyration_radius:  2.47304768804 Dipole_moment: 3.902
 S          -0.89913943742749   -0.76050828507554   -1.20620115661464
O          -0.87167452384622   -0.07288107244731   -2.46206325247379
O          -1.67468690302825   -0.08411508712599   -0.18846345948871
O           0.54180295886767   -0.94818331408742   -0.67703456880384
O          -1.36956202271129   -2.18681728733876   -1.38954663311334
H          -1.01415317334533   -2.73057720757932   -0.57100256194566
H           1.03093994843154   -0.02912424430874   -0.61819422313188
O           1.58409623940571    1.32835354723109   -0.56744742875022
H           1.50369048806234    1.63468518825953   -1.49882538183576
O          -0.36685447829008   -3.29565575188702    0.61347347433923
H          -0.66725422462270   -2.64949968792488    1.32691787112036
H           0.56784101272390   -3.11807315214763    0.47564267881513
O           0.82940706830928    1.89239913753601   -3.05031374267224
H           0.11130166804646    1.23612731123216   -2.94475045811297
H           1.27677645549709    1.66876368112234   -3.86812856638991
O          -1.08753703240524   -1.34843351409619    2.13725957506519
H          -1.52821536692344   -0.85822979117730    1.42477384825787
H          -0.31591089120194   -0.78561375645912    2.38278832914546
O          -0.66580668664916    2.25941182216694    0.53665356813016
H          -1.13224747314342    2.95367586514779    0.06726618185148
H          -1.14060883947161    1.42495847658999    0.33241460984269
H           0.87859436217851    1.81268024273069   -0.08347184815791
N           0.94021600519194    0.44250804178359    2.46833646386012
H           0.42028378314033    1.27241791492253    2.20427294220678
H           1.68032185674552    0.32325580414011    1.78714570274850
H           1.36837921646129    0.61847510879865    3.36849802604643
