    26
        -50.45075129  Gyration_radius:  2.45955919823 Dipole_moment: 7.066
 S           1.70077240021416   -1.24792693810595   -0.09455552026385
O           2.17195638325249   -0.16084411887068   -0.98909590567055
O           1.41484837028429   -2.46939467067537   -0.78475147225884
O           0.30426539234425   -0.69051065904646    0.45569443057339
O           2.50765410222830   -1.29828914581188    1.10760492445100
H           2.29491620452926    0.30265341624344    1.52883016577434
H          -0.31969290313439   -0.83597761806185   -0.29755717779631
O           0.04538000017943    1.19882618144860   -1.82919639292564
H           0.90487416324606    0.74463945710446   -1.69969250546003
O          -2.01453831826353    0.11853677675448    1.65312148460459
H          -1.59647743099428    0.90794763851106    1.27561574332430
H          -1.27356812388073   -0.46787971514543    1.83872643719901
O          -3.11160415235858   -1.66011449740943   -0.11045094931287
H          -4.01372428482206   -1.41891099242996   -0.32387551353800
H          -2.80647946017806   -1.01979415561559    0.56617537045949
O          -0.34456934970533    2.15686349236855    0.57918851711139
H          -0.25789465107755    1.79093183478904   -0.34820404104348
H          -0.61555060643330    3.07095768412071    0.47946946148897
O          -0.97019418089336   -1.40332694243168   -1.70681286781515
H          -1.78719919455852   -1.72549038258243   -1.27328133800114
H          -0.55763988164438    0.48626124119875   -2.08011566227021
H          -0.30356825619434   -2.10709249194606   -1.67515167164071
N           2.19330667594164    1.25899967203005    1.09163346313847
H           1.21750698346683    1.62161985956685    1.14980515298342
H           2.33158220006476    0.92117577643604    0.07181915400181
H           2.88563791852261    1.92613929782622    1.41505672303454
