    26
        -50.47319296  Gyration_radius:  2.45097299467 Dipole_moment: 1.783
 S           0.99466018173437    0.57349418059425   -1.05675768360626
O           0.61787638198568   -0.75826851815962   -1.51978231886930
O           1.99979364057824    0.52991173886153   -0.02479011196819
O          -0.19360049282264    1.32622142240469   -0.61316027064513
O           1.55821873497838    1.31660829044624   -2.30612460324257
H           1.64442471339943    2.23980892538121   -2.00236633999157
H          -0.63595201017505    0.85142342176016    0.89500590512790
O          -0.91954364373980    0.55614882607357    1.79370641411816
H          -1.19887690876093    1.34641397273466    2.25852811384174
O          -2.12487058396494   -1.76041906998122    0.84785034746708
H          -2.29695234510567   -1.41234316287989   -0.05736150073508
H          -1.91046173787564   -0.97540744355236    1.37740112865543
O          -2.04859024789371   -0.54058261479265   -1.53537993775266
H          -2.02940027869746    0.39458590993625   -1.30830021937872
H          -1.11482639867812   -0.74380695851048   -1.73118146785132
O           1.02011521348038    3.61034479589250   -1.09245486199336
H           0.45277427856201    4.20948681350239   -1.58307095647197
H           0.44528009146874    2.90794113867802   -0.72970761102690
O           1.45541674959175   -0.82325947344416    2.17523534291283
H           1.86722931972943   -0.29214725263696    1.45884469332788
H           0.64272648425052   -0.33613634839304    2.38687228064073
H           0.88541258293727   -1.97903251581468    1.25780766156263
N           0.36464159109942   -2.48345665575252    0.47265714853580
H           0.64465548522764   -3.45234254889997    0.37490276430532
H           0.56338330594313   -1.93166613336511   -0.39829592806068
H          -0.68353410727671   -2.37352071010161    0.65992202110314
