    26
        -50.45277956  Gyration_radius:  2.61011160094 Dipole_moment: 4.714
 S           2.26827460939363   -1.45814932256041   -0.55727578682532
O           2.84742172701615   -0.60280259436091   -1.56210337449683
O           1.17558316591610   -2.28950265731991   -1.00300096906970
O           1.87473642372132   -0.69651670522229    0.64631923419818
O           3.43722640076423   -2.42460657806849   -0.08030921758369
H           4.18938722514962   -2.00800512586194   -0.48798302043641
H           0.53539431715055   -0.89122171018483    1.47796584906844
O          -0.34882278957062   -0.91085418009239    1.93413121724020
H          -0.22550997599799   -1.43544337801153    2.72610340843857
O           1.06245146384989    1.25885581394963   -0.82501213379835
H           1.70577446951884    1.12778047175841   -1.53417118044538
H           1.35922357641214    0.57529966031606   -0.17327257624181
O          -1.29053351096973    0.54967655052418   -1.58967405412340
H          -0.35053876249395    0.86309639349401   -1.36338602673473
H          -1.96285489366414    1.15502618500126   -0.95448369197298
O          -0.51972927832832    1.84075813205632    1.66108182822336
H          -0.47979786273065    0.89804187026723    1.89967704487116
H           0.20924505013539    1.98438546337622    1.04889072670676
O          -1.30481623433826   -1.69965567867847   -0.49298545019812
H          -1.34978403564654   -0.43002592320926   -1.20542034299742
H          -0.42638285492915   -2.06174982337079   -0.76928615081910
H          -1.18593433022347   -1.48731194827508    0.45166893902037
N          -2.70417871804749    1.90287451848516   -0.01047192114688
H          -2.99647865304344    2.81514642671621   -0.33377861273034
H          -2.01091717296291    2.01756354517797    0.74609800844268
H          -3.50843938608496    1.40734058415455    0.35067826334080
