    26
        -50.45100469  Gyration_radius:  2.52681768116 Dipole_moment: 1.975
 S          -0.51293669915817    0.73165106423299    1.32996718194787
O          -1.23634884317432    0.22526274319276    0.18790623709388
O          -0.47877779207891    2.15870734137641    1.41050910882530
O           0.92877710158647    0.15837209099617    1.30279886844920
O          -1.06028962850245    0.13488273209017    2.61413810839010
H          -0.75873984835249   -0.84800115230926    2.61700829263332
H           1.41185986983076    0.44400098550937    0.45687902854103
O           2.09120233480039    0.99532661783554   -0.80584768285130
H           2.96248650591177    1.33768832064561   -0.59480499426879
O          -0.10671813628024   -3.35322624993864    0.19994678512930
H          -0.97350313455606   -3.68064936296151   -0.04550195748627
H           0.14069809920182   -2.68048858688012   -0.49418564528495
O          -1.78536955852257    1.86851267218998   -1.87827127477140
H          -2.58801875085709    2.35076764760981   -1.67281278894353
H          -1.67312488798721    1.21123239015846   -1.16562256849552
O          -0.11425455075243   -2.19751170341759    2.55348441907512
H           0.81768242232136   -2.01759502625463    2.70087010793323
H          -0.15606751823358   -2.64898008650697    1.66393016017648
O           0.49251111665264    3.00645978546123   -0.96747089432305
H           1.51262997111928    1.80251397882212   -0.98632167867970
H          -0.27013889281268    2.73240718726211   -1.51547262093411
H           0.16415931864329    2.96140042623088   -0.05202625069301
N           0.31259261048046   -1.42523031462764   -1.59227582646481
H           0.00565933662887   -1.50728242674500   -2.55357592665456
H           1.21085968258577   -0.95651929896511   -1.59864346606492
H          -0.33683011851148   -0.80370176505116   -1.11460472225586
