    26
        -50.46158790  Gyration_radius:  2.43394624333 Dipole_moment: 2.638
 S           1.48350986017215    1.57942482269441    0.08967552011531
O           1.80479175226068    1.14063070706140    1.42020857943095
O           0.21748619330220    2.30653666450043    0.00369794902973
O           1.51344947868325    0.49916778828133   -0.89409964924763
O           2.60036268095936    2.60829103728146   -0.33977302131399
H           2.30386082460783    2.92054067271160   -1.18879285381362
H           1.29257762799218   -0.80743062620439    0.12694887935457
O           1.03071272207277   -1.45704871182974    0.81314672154555
H           1.51532915250866   -1.17673777378125    1.59519516139382
O          -0.54537267804715    1.46424308715118    2.62676616400830
H          -0.84326155026411    2.26962720228574    2.19632487905221
H           0.38457631409932    1.36024410073252    2.34277631917441
O          -0.47188566935766   -0.45643197160036   -2.40414292418941
H          -0.57868151241183   -1.39111177288788   -2.06190899629278
H           0.39248012906697   -0.15288735511804   -2.06370537572079
O          -1.72857814964246    0.86790339353716   -0.72564279572264
H          -1.00673142887628    1.54383141478400   -0.47030846463369
H          -1.29034614327360    0.30629673664335   -1.53848510755526
O          -1.48514422796992   -0.61423610022952    1.27972974909210
H          -1.28683722859718    0.08375338583601    1.94928964461250
H          -1.74613744768445    0.20476990754930    0.09848274327567
H          -0.62238903090948   -1.06106966134846    1.12891092418419
N          -0.73080516378359   -2.79988400116671   -1.16936601945903
H          -1.61283101400262   -2.85426143049186   -0.67492170526221
H           0.00403135452220   -2.71360225589000   -0.47409980019042
H          -0.59416682542182   -3.67055925050916   -1.66590650087810
