    26
        -50.46407696  Gyration_radius:  2.36409027203 Dipole_moment: 3.018
 S           1.30734721856337   -0.05433369484036   -0.49976020491669
O           2.23916274661508   -0.02320328773649    0.60988305387281
O           0.51197318657317    1.17310893141808   -0.56650599825859
O           0.42073105543339   -1.22389083154391   -0.39448143108651
O           2.09664120327112   -0.19178166068442   -1.81972725650522
H           1.36328799376579   -0.13523660750389   -2.50335531953224
H           0.48923272430318   -1.66817200778685    1.15821693998418
O           0.56798077070085   -1.70004740437478    2.14530536074465
H           1.49553711528716   -1.49762604601388    2.30667536423870
O           1.22464259482117    1.90122164638747    2.03991783298404
H           0.90653917504392    2.45865127505753    1.32169303122935
H           1.76671714559160    1.21271308684160    1.57908200411388
O          -2.09601305382911   -1.34194760334730   -1.06928240291332
H          -1.12735286344427   -1.36504176694403   -0.88536470022975
H          -2.44417207707525   -2.17982355209829   -0.76010695092032
O          -1.84520085056928    0.85290737085162    0.48633919025912
H          -0.99893093316305    1.08150726860098    0.02557153218179
H          -2.18256617714131    0.07870724547418   -0.00901570363990
O          -0.72279831267731    0.41341151646902    2.66779415997006
H           0.05236284831292    1.09620119371166    2.55020677066576
H          -1.32031916192265    0.56686623114561    1.79774499779180
H          -0.26334184123319   -0.51054878605055    2.55475132595985
N          -0.11174608828574    0.16782903175618   -3.15504947740446
H          -0.28424606456271    0.92842761522510   -2.50518495208679
H          -0.80650901470063   -0.54743450532830   -2.97552353579799
H          -0.23895931967091    0.50753534131556   -4.09982365069254
