    26
        -50.46906629  Gyration_radius:  2.46779945491 Dipole_moment: 4.301
 S           1.02410027107891   -1.88418619548462    0.32361123349857
O           1.59982983803500   -0.72161233739244   -0.35877629698481
O          -0.37737144042496   -2.03606567955858    0.00933434925998
O           1.33776039542899   -1.90947154771186    1.73307796250980
O           1.75913638662598   -3.14838514086977   -0.30027229825026
H           2.49720518437617   -3.24187679618761    0.29274194249073
H           0.28975399664777   -0.75156312708626    2.17362664706058
O          -0.30447654055393   -0.00214215200499    2.40726918187633
H          -0.67900041840416   -0.21376133551012    3.26444583677262
O           1.59507666359989    1.58372036296877    1.11438897904033
H           1.79797365168143    0.77930720067023    0.60736812578551
H           0.99898559337314    1.28193185136982    1.81404368379796
O          -2.04209551202679   -0.75581812941273   -1.49310484662072
H          -2.74356066376877   -1.35031464831485   -1.76146340084194
H          -1.43811066334742   -1.28618644812996   -0.91172387758710
O          -0.14514109016475    2.73631581797789   -0.52982398382560
H           0.58319129741373    2.53256215106696    0.10527431600911
H           0.05459911668498    1.64711788701150   -1.50508402706153
O          -2.01642165503337    1.19698625432188    0.56892256613344
H          -2.20214982802041    0.53164360526187   -0.10830028565050
H          -1.47858158207503    0.74952485280194    1.24355303162964
H          -0.95530126534072    2.39344358936222   -0.08448236954363
N           0.18281863505688    0.70048642307891   -2.05849158628991
H           0.79732445350838    0.09166976125712   -1.45047488164931
H           0.59979525544012    0.84304504584002   -2.97074741735224
H          -0.73534009047192    0.23362872452451   -2.12491257394848
