    26
        -50.46906636  Gyration_radius:  2.46810586512 Dipole_moment: 4.296
 S           1.70980220298589   -0.42256840743373   -1.26684192608323
O           1.58551973636462   -0.82284576910292    0.13779551375052
O           1.13399180632485    0.88240624394283   -1.49347634340259
O           1.26243487167992   -1.45124107389088   -2.17640851205058
O           3.27084300878274   -0.27111273750109   -1.52772643043336
H           3.49251859175621   -1.14808940396128   -1.82227032161281
H          -0.32709231373488   -1.22930705650967   -1.93742571458776
O          -1.28290963117935   -1.12143816697535   -1.72720907129020
H          -1.75545655627541   -1.25539501089795   -2.55096064080937
O          -1.66599467936320   -0.38863664865269    2.20583991680577
H          -1.39418643454875   -1.24979117577291    1.80604556020025
H          -0.37464327239625    0.32523466155740    2.17582676278107
O          -0.63057017085668   -2.32294018267768    0.70686707973505
H          -1.10075156567880   -2.16841357182540   -0.12437919487226
H           0.25770520748051   -1.95906867590589    0.55240768719856
O          -0.01063791146500    2.64000167027938    0.01259003132300
H           0.43157034214399    2.00111703683390   -0.60413436017818
H           0.09734684041220    3.50722172012865   -0.37955570919234
O          -2.24391273481023    0.88699013697576   -0.05647777879114
H          -1.59862544418944    1.60675961102797   -0.09315269613204
H          -1.93973803004274    0.22185450708004   -0.69653139753818
H          -2.11802283222801    0.08626546876436    1.46940468789967
N           0.58554913053641    0.81472385720543    1.93705688449488
H           0.38774015056945    1.69764225976959    1.44031521275676
H           1.07310818989063    0.17497510539095    1.25071433158009
H           1.15441149771270    0.96565562203454    2.76168643903883
