    26
        -50.47163220  Gyration_radius:  2.41141340257 Dipole_moment: 2.522
 S           1.16583852439651   -1.19531062343317   -1.01529947437398
O           0.26108688314057   -0.91528199834180   -2.11818915264086
O           0.80188852288528   -2.36604985049827   -0.24879120104207
O           1.38871382325869   -0.02010180299952   -0.18798089879375
O           2.58240627889945   -1.50797289094769   -1.66482751801841
H           2.46265186626417   -2.37643480123702   -2.03554722215246
H           0.80594562178641   -0.66045179183172    1.27457024120430
O           0.39657978762259   -0.90542602833006    2.12889103516906
H           0.43425667326485   -1.86480548156148    2.13992274589387
O          -1.79195826199618   -1.94288361516220   -0.68863680900393
H          -0.95567784027382   -2.34693662540361   -0.39592508410936
H          -1.53929627121359   -1.51141948714086   -1.51433907350814
O           0.00949458281992    1.67450996496889   -2.05166583609881
H           0.92570782899501    1.94173850828735   -1.94965660186653
H           0.04718612137633    0.69284546080121   -2.15768863522051
O           1.21991541204354    1.90905600657926    1.70424632637517
H           1.07469834052271    1.31017498606328    2.44431964075852
H           1.55154004685340    1.33698716136272    0.99127428247453
O          -2.06565691784769   -0.16421092736591    1.27011730451585
H          -1.58618303768744    1.16726972086300    0.68475977908299
H          -2.15234056974162   -0.82846813459407    0.54748286312996
H          -1.27821202205689   -0.45481674853005    1.77452431503742
N          -1.08609803065337    2.06261598119542    0.34804058319185
H          -1.69763079247421    2.86882798462428    0.40801163792173
H          -0.74058554798954    1.92188631104783   -0.64133244594731
H          -0.23427102229661    2.17465873158017    0.95371919805113
