    26
        -50.45038901  Gyration_radius:  2.46446765602 Dipole_moment: 4.460
 S          -0.86470125145490   -1.35781728800977   -0.61073387594623
O           0.30125076082786   -1.62843563141412    0.19299496941383
O          -0.67013645033390   -1.50297897159785   -2.01903259165139
O          -1.36298291481733    0.08152580863734   -0.30112365168328
O          -2.03432373588836   -2.20414153306234   -0.13057040127096
H          -2.21005320029785   -1.91645019030812    0.83966213005489
H          -0.94523156255815    0.77323227083554   -0.89484382942033
O          -0.25407941072851    1.84947426319122   -1.82044284393592
H          -0.87880377640798    2.15971418719418   -2.47817891835423
O           1.18454638768075    2.18827287239369    0.54627468031846
H           1.75441387724460    2.95872461060700    0.50797650514739
H           0.61432666218364    2.22649967533854   -0.23676398604450
O          -2.30301541355966   -1.47758874258361    2.27689938324127
H          -2.10291067030338   -2.23638498231680    2.82995008247282
H          -1.54540533403770   -0.82248786382769    2.40797750352110
O           2.44598681301098   -0.10680301305680   -0.46512604284002
H           1.83554503775287   -0.81151937040834   -0.19258543437147
H           2.14435094674725    0.68687134755882    0.00700747914549
O           1.32215466077280    0.14768709589663   -2.86770360364169
H           0.41200476588657    1.25264881560044   -2.31502929294086
H           1.94632370608076    0.02460305030377   -2.11449552038614
H           0.70802320034660   -0.60422555329433   -2.81669600213509
N          -0.12751075513005   -0.01269314113957    2.48160624008990
H           0.31303736722547   -0.59669925629091    1.77323627246342
H           0.47212380831818    0.00261953464961    3.29729558478661
H          -0.15493351850035    0.92635201506083    2.10244517396062
