    26
        -50.45972183  Gyration_radius:  2.57182743448 Dipole_moment: 6.193
 S           0.42899866850696    0.62753691728760   -0.40597731458555
O           1.27298733433884    0.86004060194702    0.74991230976624
O          -0.48224795180015   -0.50218299753350   -0.21795387735173
O          -0.45112432667947    1.88890028861864   -0.63315090729311
O           1.19806847783734    0.42879975126654   -1.63858687081011
O           2.72936954205617   -1.30848769095223    0.35612849026693
H           2.21843990598963   -0.51187961970925    0.60952841297862
H           3.51419543453600   -0.97741093850190   -0.08278656135007
O          -2.84267182974501    0.59663377890235    0.28220890595535
H          -2.03453166402928    0.06408640364469    0.12924285143384
H          -2.73552628909938    1.36430321935623   -0.28634798243988
O          -2.31927449664522    1.55129815733900    2.73435488832834
H          -2.58076482146397    1.10225693097874    1.89805686227940
H          -3.09950245564802    2.00800583460896    3.05209150692722
O          -0.22468038746018    2.86057704741195    1.69749613650978
H           0.52795611905682    2.25386543893478    1.77877867979640
H          -0.41336711957284    2.40319589948889    0.24317790413552
H          -0.96189869495821    2.44374890227188    2.19991000953049
O           0.63143673341284   -2.89828352251568   -0.16693513138049
H           0.75529189716125   -2.47868313150572   -1.60530990904980
H           1.49064485804567   -2.60726844741674    0.19155728395067
H           0.03350064159089   -2.15114130693291    0.04698383898047
N           0.82225768044761   -1.92101005907030   -2.54514639294100
H           1.59036455805340   -2.23962807654436   -3.12639101293120
H           0.99001257432322   -0.88528465233586   -2.21349740437631
H          -0.05793438825146   -1.97198871903670   -3.04734469633210
