    26
        -50.47064464  Gyration_radius:  2.48508420601 Dipole_moment: 4.193
 S          -0.77912491707980   -0.26198839476307    0.93794486196095
O           0.57528130380130    0.20872723475201    1.24030572447847
O          -0.73994918187919   -1.64681661683325    0.48732467590437
O          -1.42077489729256    0.60707092592683   -0.04619759709481
O          -1.60777804075396   -0.22296298346089    2.23963948332235
H          -1.91763233967731    0.72817248593348    2.28788674656872
H          -0.57085442848364    0.64403206996127   -1.39076989561371
O          -0.02443324437166    0.61900089435935   -2.22144032754172
H          -0.31468954049780    1.36472778805730   -2.74940788598076
O          -0.58633161803762   -2.05363708740156   -2.44828015065113
H          -0.42590322420861   -1.10533330091772   -2.60627540952603
H          -1.14407238947641   -2.08098036041927   -1.66063792523047
O           0.47059530716581    2.68358821598938    2.15367884689683
H           0.58909950598952    1.77864055669966    1.78899654473132
H           0.93859136453665    2.69707867326572    2.98997493969813
O          -2.16807531429942    2.25954847304089    1.93274186931291
H          -2.16210273958891    2.01992891975000    0.99368636222483
H          -1.28622488349358    2.65430640255527    2.09855536369451
O           2.26378494139879    0.08695255464607   -0.79106779904684
H           1.78500426818756    0.25551980292097    0.05013220041589
H           1.96057227522468   -1.45108831827217   -0.81884372007796
H           1.66537576238688    0.43273683212060   -1.47517283986481
N           1.41198643579844   -2.37075972023843   -0.76223250431694
H           0.64720102436917   -2.18980045905289   -0.04745325114666
H           1.98430816746060   -3.17576868609492   -0.53742514093619
H           0.85614641257041   -2.48089590252034   -1.64566315173069
