    26
        -50.46781197  Gyration_radius:  2.39619370343 Dipole_moment: 6.268
 S           0.35012937462323   -1.43472971625507   -0.14930986365423
O          -0.79945438944727   -1.01070550780968   -0.94615114608730
O          -0.02595943373539   -2.15626819105830    1.03732058910445
O           1.28835292088239   -0.35057942314739    0.06172200282485
O           1.13109969883280   -2.48356839695499   -1.06963948810395
H           0.80420521702133   -3.32465713842289   -0.76655674812903
H           1.48933687585209   -0.00530899376446    2.50994611889047
O           0.64776961033885   -0.29088859397284    2.87241219252078
H           0.37840763693836   -1.04837107092988    2.32453576352858
O           0.49389522036616    2.27885952169564    0.22050131502454
H          -0.08013293108207    1.90380524449894   -1.11045122613890
H           1.05439664886339    1.49271989785720    0.31612144023583
O          -2.51014422127945   -0.65743214174350    1.10516954173373
H          -2.01207373124140   -0.82932837733811    0.28974238283478
H          -2.21420858719625   -1.32985440455883    1.72457217169938
O           1.85646683711338   -0.03065898679429   -2.52311303832156
H           1.82467598749015   -0.14229609462711   -1.55340031213778
H           1.90867390219596   -0.92026667560577   -2.87690925557553
O          -1.20820065661351    1.54833667003400    2.05693334340910
H          -0.20428886767738    2.16359173959655    0.92509255801930
H          -1.85834178941875    0.90680582660746    1.71462053168287
H          -0.58525510783287    1.00647627684537    2.57715378608980
N          -0.38702925277924    1.34948139937970   -2.00374220615942
H           0.47083608044157    1.10125759837678   -2.52922977361163
H          -1.07286084689228    1.83691047753893   -2.56863223413645
H          -0.74029618581088    0.42666903053708   -1.63870847553486
