    26
        -50.47078940  Gyration_radius:  2.50474960452 Dipole_moment: 4.959
 S          -0.41624410366027    0.22783350920382    0.88512246753960
O           0.88318026543995    0.22789887664143    0.18775731010550
O          -1.09973871116917   -1.03406937459976    0.64906876001145
O          -0.11787945853773    0.30206464632511    2.40133131726586
O          -1.20552677174039    1.38537546290343    0.50720527297118
O          -1.58926497704350   -1.37500951478184   -1.98188156305304
H          -1.70148732190855   -1.35077518616931   -1.01263323188868
H          -1.61244544486509   -0.42975082327902   -2.24395236292789
O          -1.39154783764954    1.27955400628123   -2.12398714892080
H          -1.28384983059473    1.37760907705163   -1.15203884679031
H          -2.08286766870687    1.89527216993126   -2.37407462482229
O           2.22747130977000    2.41443528420083    0.86650322300812
H           3.01378893669747    2.08750214273782    1.30703675241109
H           1.76343036165165    1.62539290957159    0.51457556560148
O           0.31992075281112   -3.26143292495458    0.65532363623556
H          -0.20512943422275   -2.44659362998387    0.82818052835252
H          -0.29248801591992   -3.99278223295423    0.75174477418710
O           0.04829525369089    2.85772358275565    2.37354245079302
H          -0.02244014657664    1.28456749799925    2.58134739145002
H           0.90425557391230    2.94923246016498    1.90444348126241
H          -0.61667919886512    2.78293813330727    1.67232790845321
N           0.92885472443365   -1.77680566205206   -1.47300232125648
H           1.66369406727774   -1.85670069749572   -2.16606085279003
H          -0.05625779804417   -1.68544149595209   -1.89185277022006
H           0.90336181537073   -2.57541016917009   -0.80317707674499
H           1.03759365845376   -0.91262803768834   -0.86285002023585
