    26
        -50.44411067  Gyration_radius:  2.58663223303 Dipole_moment: 4.466
 S           0.35411710963153   -2.12174096658382   -0.67251499947794
O           1.69087518750229   -2.56892309757772   -0.80512433488009
O           0.05710559808098   -0.82558095662628   -1.23266368041138
O          -0.08745088646305   -2.11379040579506    0.82507945825659
O          -0.62751435891726   -3.15584802102172   -1.25311449736650
H          -1.51791002252605   -2.75784765154075   -1.07702911591817
H           0.01047720887361   -1.22265589506203    1.27289256393845
O          -0.19542838078727    0.20041314993291    1.95986709905121
H          -0.67494518059404    0.15208321910884    2.78886822896683
O           1.53515778062962    2.20289060080170    0.85110283670169
H           2.05490583937113    1.66146123756816    0.21262042044485
H           1.13751204573696    1.55697638530984    1.44689682306132
O          -2.74564893957760   -1.87071977595314   -0.40130330891767
H          -2.76951105823356   -2.14374747328903    0.51909059354688
H          -2.61467491475131   -0.90804488134871   -0.40238348290062
O          -0.65699047451984    3.14536726262786   -0.33030938535659
H           0.21527187406654    2.86247503275760    0.04387230448740
H          -0.82954174371582    4.01757328415488    0.02474213173611
O          -1.71566979819860    0.72884710451065   -0.07142124712299
H          -0.84250675568278    0.51092716026464    1.25601277068799
H          -1.53698936790704    1.68092395459044   -0.24220813914074
H          -1.07284024512143    0.26652564556187   -0.65001809127085
N           2.67320614305179    0.39043708086589   -0.83069942342253
H           3.14211557002655   -0.40662352566440   -0.41589990617622
H           3.22657608101175    0.68183178302116   -1.62764069636349
H           1.79030166898945    0.03678974930270   -1.18871494234271
