    26
        -50.44411081  Gyration_radius:  2.58691510303 Dipole_moment: 4.471
 S          -1.49492278022961   -1.47616365947109   -0.81833332413382
O          -2.46941016992268   -2.00289198493006    0.06340147475909
O          -0.13968525658610   -1.44298442902765   -0.32401722757909
O          -1.87734631719060   -0.03371762829668   -1.27761416085208
O          -1.51871424678085   -2.21976842862920   -2.16598615916594
H          -0.83003725749535   -1.75178274941465   -2.70371894176017
H          -1.44737172966640    0.69250734171390   -0.73736018071086
O          -0.56013513078571    1.89188654934902   -0.17631612735743
H          -0.69083112086802    2.71133432076433   -0.65692529283295
O           0.50222123725582    1.33272545694447    2.43026979379321
H           0.09097172420347    0.45531602237397    2.60954524001641
H          -0.02170424308240    1.70147530014188    1.70928855507113
O           0.19359374797032   -0.58636578282982   -3.28914513717497
H           0.84443748489922   -0.24522512152120   -2.65350661735846
H          -0.37632611372544    0.15089520611219   -3.52111951516053
O           2.83245206928527    1.00668395159433    1.18389514280848
H           3.42796226237442    1.69055419106904    1.49088220968105
H           2.01403615524291    1.08432463402113    1.73618182637344
O           1.46264995873634    0.51582851468648   -1.03193492959492
H           2.15390718701865    0.68869007389558   -0.35382940171168
H           1.02178665637130   -0.29872315803138   -0.70939074351179
H           0.29870637585827    1.48508695951074   -0.50395199961645
N          -0.75127076543463   -1.08202251520085    2.50078207675180
H          -1.76268493402729   -1.08954894537493    2.43734763226053
H          -0.48803830296626   -1.79470357250210    3.17084596774365
H          -0.41424648047581   -1.38341055698124    1.59070984942544
