    26
        -50.45310037  Gyration_radius:  2.47129124206 Dipole_moment: 5.233
 S          -0.36493602061995    1.35603282622715    0.11425196429459
O          -0.79714270091261    1.74463448035965    1.42253046737604
O          -1.22512632298468    0.41056515576422   -0.55116821175133
O           1.06172917714754    0.77700498622342    0.19417700029670
O          -0.18702101242598    2.60472864587232   -0.74396612537764
H           0.21425060177901    2.30711222332017   -1.63660757484851
H           1.09160101419230   -0.24248168289327    0.05568733691930
O           1.18407079811780   -1.73449071325861    0.00971509190444
H           2.07699393427171   -1.99905120545815    0.24303168833165
O          -2.40629567238112   -0.66192410774678    1.63452985029067
H          -2.36258303808911    0.12914632015344    2.17903250019535
H          -2.15141913227872   -0.36802670353057    0.74495175775868
O           0.72162354106926    1.75310214411884   -2.95346153979338
H           0.56919742185294    0.75438376412129   -2.92725132761850
H           0.16769504536311    2.09630106034442   -3.65814630548709
O           0.81835401639450    0.39800435591332    3.11028506340909
H           1.68748648682959    0.70934423548737    2.85211741943178
H           0.18405558780726    0.96330931295883    2.63362824230331
O          -0.12530777587126   -1.98655589168643    2.18940763970204
H           0.26192576258050   -1.25226151470068    2.70411986754978
H          -1.05305950704084   -1.71175016442206    2.03248389283022
H           0.61756797968584   -1.94239143379883    0.82999858178381
N           0.11450225235472   -0.79429114124547   -2.72828718340223
H          -0.32564223666450   -1.34412376282131   -3.45550531530265
H          -0.58550962447700   -0.59129562009347   -2.01573000762412
H           0.81298941430781   -1.37502556919966   -2.27982478314924
