    26
        -50.47192576  Gyration_radius:  2.4358547315 Dipole_moment: 1.704
 S          -1.00805478757260    1.69927274134059    0.51503266025132
O          -1.39767696163321    1.19753925574007   -0.78008404533257
O           0.43170833065869    1.96793911473077    0.59097040546362
O          -1.45569957414231    0.88245643365257    1.62809168126596
O          -1.72165825339136    3.10218396324000    0.68734440824046
H          -1.62282441254826    3.26850695399388    1.61903528090937
H          -2.12192754313245   -0.47365022514779    0.90534754135485
O          -2.42431936631171   -1.13194850969729    0.24497595817995
H          -2.66676024674858   -0.58774774992359   -0.51155474254810
O           2.05873737601543   -1.53068641964608    0.47518882272299
H           2.16012956414494   -0.29435661610258   -0.47111141315643
H           1.26133418655928   -1.97278937057114    0.13286218410093
O          -0.05368612815844   -0.33406941574500   -2.51912847736235
H          -0.66616169416275    0.27519469535556   -2.06244410848124
H          -0.15155050883466   -1.18289338010091   -2.05179754723328
O          -0.30442288286191   -2.37765297588258   -0.67097312646804
H          -1.10135737577745   -1.94607140664582   -0.25774377657831
H          -0.53186881832988   -3.30111296882827   -0.78689878235926
O           1.04531777853935    0.05527288928016    2.37717004975655
H           0.13465846962980   -0.13003689403573    2.62958884167593
H           1.78067493118079   -1.08261336431657    1.30527267320884
H           0.96722564884382    0.85642334930459    1.82854249931980
N           1.94071819416161    0.56620113778956   -1.07593853349780
H           2.77576784375916    0.99452107156717   -1.45746734873776
H           1.40992721518223    1.23628476655145   -0.46438493091271
H           1.26176904491427    0.24383291410318   -1.82989620378506
