    26
        -50.46045001  Gyration_radius:  2.45558797766 Dipole_moment: 6.758
 S           0.90314076345976   -0.91366037649077   -0.88908170314304
O           0.63821531118200   -0.58240116348379   -2.25930986640460
O          -0.29585737399392   -1.31082796411194   -0.15052203235480
O           1.45779049185828    0.36873348507593   -0.14723670079291
O           1.98580468550608   -1.88155848751298   -0.69683243559013
H           2.32295905657563   -1.67089810997694    0.65189513445958
H           0.71879925722430    0.91305759404982    0.23933762977515
O          -0.34835148015987    1.75752017838233    1.10386061844169
H          -0.07093556256338    2.67484076706823    1.12713246827099
O           0.05998301733288   -0.70098638446735    2.33997342274961
H          -0.23566432492546   -1.04920884842373    1.46271322621660
H          -0.11852782143361    0.24883912415122    2.27145254702245
O          -0.49773374477767    1.77134716164262   -2.63763997689932
H          -0.03274818541103    0.91540117546987   -2.50589514226310
H          -0.87325607471039    1.72225180030193   -3.51845191036579
O          -2.79813626186333   -0.85189524109109   -0.92018706489668
H          -3.31539183053678   -1.38220933230125   -0.31228023491613
H          -1.86124428874124   -1.08163116790142   -0.75031169942381
O          -2.25181599566454    1.77064694021145   -0.59902448306412
H          -1.16411406704791    1.74482321837232    0.49441900638405
H          -1.68769838797881    1.90118458298997   -1.39107216319448
H          -2.60946479628101    0.86572952944924   -0.70288025691001
N           2.50424995177917   -1.38586852634246    1.72011844859740
H           2.88521591506826   -2.16500076464517    2.24764309326424
H           1.54220882684478   -1.08227276376507    2.09978582486072
H           3.14257290926053   -0.59595641664359    1.72239426017885
