    26
        -50.45875091  Gyration_radius:  2.52034172215 Dipole_moment: 10.930
 S          -0.59996302159869    0.22602684972504   -0.90756950214880
O          -0.64589433021898    1.62619353606628   -0.59664489935099
O          -1.27029214994093   -0.60527321772567    0.09136529924039
O           0.90545389988671   -0.24995250645606   -0.91840407523243
O          -1.05282983840537   -0.10545070368727   -2.26202671657250
H          -0.44945958302183   -1.32460529710522   -2.52274004890269
H           1.30771916225083    0.01618359751505   -0.04162851461785
O           1.83403640801411    0.36448718533716    1.41091195510906
H           2.33695737677836   -0.33663656177384    1.82846273883498
O           1.43544251600359    3.06653727884641    0.55909084475626
H           0.78391632349740    2.69607499782201   -0.05523679384107
H           1.88676378490239    2.30372494465207    0.93697842211847
O          -0.85396388013194   -3.12928304536120   -0.24409659090804
H          -1.00805308150607   -2.17351919994493   -0.00875764572363
H          -1.69218022053438   -3.56954240206373   -0.09160545357401
O          -1.05634681946520    2.97172291991384    1.81381575212441
H          -1.30162438260933    2.66995054786286    0.92802983358155
H          -0.16483987784793    3.33711833796996    1.69107409732779
O          -0.49967984369348    0.43790006137535    2.45221278611986
H          -0.77124727263696    1.38571401683683    2.41429361609330
H          -0.94803714725846    0.01566314535954    1.69738726954856
H           0.95383445982008    0.41960578011310    1.91706782383941
N           0.09965958041239   -2.31028023525821   -2.55356265294280
H          -0.05445719564077   -2.82021566446777   -3.41717145457878
H          -0.25730522616124   -2.82788519445103   -1.70073483268649
H           1.08239034910594   -2.08425917110149   -2.42051125761461
