    26
        -50.46454022  Gyration_radius:  2.37452007224 Dipole_moment: 7.991
 S           0.01142064527634   -0.69607786683002    1.35149198552814
O          -0.66860866837517    0.37000191436270    0.58490367865682
O          -0.73324627245804   -1.92026156022119    1.35597644948681
O           1.38605430544971   -0.90731876808178    0.63820640466985
O           0.36613707245754   -0.16750233500652    2.66866809140696
O          -2.84487470780869   -0.32874154338643   -0.79262575352181
H          -3.55270942026684   -0.58227642851217   -0.19829630119994
H          -2.09686065181760   -0.05923261602301   -0.22057127526413
O           2.31243915835170    1.51698205783671   -0.23651566029094
H           2.35288220454662    0.57881783664079    0.01574932316739
H           1.72886284993594    1.54076949281153   -1.01132190507393
O           0.09475256315280    1.01040638773831   -1.83128383451898
H          -0.69063646075016    1.18149458760877   -2.35441949840262
H          -0.23303106712946    0.79003071449679   -0.92591831121347
O          -1.40858563958576   -2.64544270324577   -1.14334616182749
H          -2.04371203620737   -1.91957815062775   -1.27692256576142
H          -1.21937043759339   -2.62794791389957   -0.18631054427328
O           0.92073504370290   -1.61730147009440   -1.72498694790535
H           1.22830685981192   -1.29626531770260   -0.30870814473354
H           0.06901592337358   -2.12789641514720   -1.64807328544580
H           0.68402577411942   -0.74143428423071   -2.07600179635170
N           0.87630457452842    2.16947374150356    1.87597686897515
H           0.69480450700612    1.15549483958791    2.31220811646988
H           1.28522304083762    2.80768928323561    2.55138310192212
H           1.51148003665351    2.01992344067686    1.02903535723942
H          -0.03080916719931    2.49619307657197    1.55170259827521
