    26
        -50.46887316  Gyration_radius:  2.48693932342 Dipole_moment: 3.028
 S           1.09072304305998   -0.46537836460467   -0.24035082430984
O           0.91606825206148    0.16558313922239   -1.54273165139913
O           0.05542206740610   -1.45847831038909    0.01148665753252
O           1.11631197828422    0.53889140046468    0.83146381458172
O           2.46866352672615   -1.16018000290049   -0.27968919659926
H           2.61265538948311   -1.59401588958408    0.60462172610332
H          -0.24564869553045    1.37727587701755    0.77491627663462
O          -1.12551028775275    1.83589350196666    0.73067125972614
H          -1.19867575342647    2.34391850318867    1.54058432805677
O           0.40691610338336   -1.16762444978291    2.71663104891542
H           0.64897711445675   -0.39846802355140    2.16082988459757
H          -0.12285426671588   -1.71654634235255    2.12680106153637
O           2.79462607168236   -2.11532365793866    2.11788697913668
H           1.91561075630375   -1.87809132348098    2.50746433307303
H           3.44736392245527   -1.58114374697487    2.57516944645126
O          -0.64599658736640    2.60329155396395   -1.86330413752925
H          -0.91658310752909    2.56481292387490   -0.92878797258946
H           0.22370515465878    2.18231081243979   -1.87951079524003
O          -2.37498004544196   -0.47130537360102   -0.12304516898081
H          -2.20242407373416    0.37510320193950    0.32318473790248
H          -2.05711035756944   -0.13354038068668   -1.62217411517942
H          -1.54868232701934   -0.99120832329788    0.01181848218957
N          -1.49545188888112    0.18591837431629   -2.47768060697105
H          -1.46982656912499    1.23421079430879   -2.48870948680954
H          -1.80651409191296   -0.22546072943114   -3.34947139732396
H          -0.48678532793753   -0.05044516412229   -2.23807468351326
