    26
        -50.47294886  Gyration_radius:  2.44402433893 Dipole_moment: 1.555
 S           1.23800303934495    1.44797174570610   -0.70834079402850
O           0.43883631024392    1.84356768684550    0.43851041381525
O           0.41809724925716    1.07036820907733   -1.84913119921789
O           2.23520375097975    0.44432734569901   -0.39490631916044
O           2.03713167932596    2.74614639212895   -1.13708396748284
H           2.64785062318869    2.38312998958731   -1.76854015210079
H           1.78496095501397   -1.04792053779496   -0.03104806288674
O           1.47944996122907   -1.98057109183044    0.11753112327882
H           2.26695747176937   -2.48010974502206    0.33807252843976
O           0.44320880577569    0.68006795721420    2.81456605258471
H           0.55641126746282    1.12077991010010    1.94621666837477
H           0.01181503547782    1.32112936575754    3.38133695952369
O          -0.25939542845962   -1.49233274798992   -1.96299840351255
H           0.40714103180530   -1.89855563477155   -1.38532386873529
H           0.03503732568230   -0.56176922913059   -2.07257182760362
O          -1.93115550590013    1.69142163663893   -0.65257367262876
H          -1.52895371998930    1.63987763494201   -1.52979436952610
H          -2.17709154418795    0.13350284288930   -0.29030084450796
O          -0.60493369782261   -1.58628927291412    1.84990951472434
H          -0.27475570028949   -0.79940110397674    2.33364674468699
H          -1.15596653660442    1.89719193375056   -0.08769890905958
H           0.16090201843073   -1.88168356340073    1.32319505506035
N          -2.11315627977045   -0.91781206835516   -0.18715650620815
H          -1.60372469500847   -1.16812798531587    0.71993401715785
H          -1.48316173726872   -1.25474940249917   -0.97845071592710
H          -3.02871170966702   -1.35016026733857   -0.22699945506283
