    26
        -50.47190980  Gyration_radius:  2.46918551878 Dipole_moment: 1.477
 S          -1.54412261928239   -1.01133379295343    0.74305409345681
O          -2.87977642214534   -0.66378904700901    0.32509808694592
O          -0.90961262568568   -0.03522884958021    1.60895541696126
O          -0.67141107908912   -1.38576029737365   -0.36338524544558
O          -1.71101203898201   -2.32467769907474    1.63692758898265
H          -2.59417676469000   -2.61228537899801    1.42966630806839
H           0.44253763998012   -0.74403450720403   -1.40775969879795
O           1.14609257251594   -0.38128689158331   -1.99192275298412
H           1.12825927477795   -0.91847611034803   -2.78508931235417
O           2.82962804644903   -0.22837244817227    0.22599206754821
H           2.43726355419942   -0.97733382160122    0.72249251786881
H           2.51098142152053   -0.33881464411961   -0.68467856515350
O          -2.33001010834392    1.42249593060685   -1.19913522155902
H          -3.06872015150160    2.01604925413567   -1.05325956641222
H          -2.53129283739299    0.61358922959263   -0.68499661696780
O           1.20817543070322   -2.02237156200589    1.40582831811646
H           0.52204626483442   -1.92225580077910    0.72071115524056
H           0.75617085482383   -1.83719716428077    2.23124646705252
O           0.23171454602787    2.17806262431880   -1.57179924559494
H           0.72925590689534    1.97364550837280   -0.09158487279953
H           0.61975202400272    1.37509419180777   -1.96110739010230
H          -0.72676953159974    1.99331184944286   -1.51831389703962
N           1.03454439367217    1.58498463811377    0.85497012707642
H           0.24851446382834    0.98263245484518    1.21093081952658
H           1.25327246583554    2.32126956338791    1.51561270832341
H           1.86869531864034    0.94208279047133    0.68154671004139
