    26
        -50.46887317  Gyration_radius:  2.48694386712 Dipole_moment: 3.028
 S          -0.15963401060317   -1.14881937329679    0.34557209821522
O          -1.26128116941540   -0.59562020609566   -0.43022274984896
O          -0.13110695975607   -0.59828321802871    1.69499303653708
O           1.11983179543828   -0.92513509522854   -0.34079920122500
O          -0.35862593277902   -2.67129900377174    0.50546011354925
H          -0.37588409424692   -3.07039575252461   -0.40646090827582
H           1.41658912928848    0.64723210899986   -0.36557899181797
O           1.53223624893142    1.63308698846881   -0.39900806582099
H           2.25023925577809    1.79346543857487   -1.01391713999270
O          -0.23038698685186   -3.61173594258906   -1.91628675944463
H           0.60682166473564   -4.06802530094572   -2.02362176534882
H          -0.15144350088774   -2.76044265484196   -2.41623591391067
O           0.08498742355198   -1.13264778571161   -2.76036188865866
H          -0.77523284079534   -0.77751232825109   -2.50835603486198
H           0.63267354932389   -1.00270472173705   -1.95885592406182
O           1.41352692401643    1.78472875956656    2.34156356326216
H           1.63571077600121    1.90874637588091    1.40175799039749
H           1.30559526460293    0.82940100351910    2.43941030996021
O          -1.19164099117027    2.02489166272291   -0.59601432667380
H          -0.23219800604939    2.12804229851961   -0.71511618349506
H          -1.34482819431811    1.05479901351371   -0.67689067168860
H          -1.34058270975400    2.03658630866083    0.96613789601630
N          -1.19684387727146    1.74045822904147    1.98644438584888
H          -1.97078861168674    1.97771809937681    2.59531398672228
H          -0.27100834375354    2.10801884274442    2.31437365086855
H          -1.00672580232498    0.69544624344753    1.93669950374124
