    26
        -50.47157788  Gyration_radius:  2.49386073819 Dipole_moment: 3.799
 S           0.95682621252359    0.86079274362310   -0.72931198385162
O          -0.16509948782768    1.53226803674010   -0.08495272623092
O           0.52496192713711   -0.25830966490756   -1.53317098266548
O           1.97003737799206    0.46001241093922    0.25565038956011
O           1.61217015314499    1.93119724657920   -1.65941421770381
H           2.44132938231327    1.49606747125491   -1.93160073175843
H           1.35992095384401   -0.65051423148088    1.24076556714689
O           0.93863698166567   -1.32633766098104    1.83287453785442
H           1.64841728258742   -1.69236935111702    2.36305101651542
O          -2.48173168881565    1.24973621661693   -1.28220215198286
H          -1.55182062525505    1.36794738431233   -0.97522871735567
H          -2.89903632286107    2.10697805004308   -1.18031678234598
O           3.84070838299911    0.49783300632185   -1.57904238094494
H           3.29123498922578    0.28773150937735   -0.79662283998838
H           4.60867670216798    0.97329465455511   -1.25393908219878
O          -1.13481569460700    0.45208517382625    2.15507662562669
H          -0.43432088894939   -0.19957592427719    2.32494050807159
H          -0.76337613875127    1.02252884327330    1.44928917824336
O          -0.58169585437215   -2.26884785704525   -0.27509135920107
H          -1.88981341426228   -1.51491710988515    0.06707910969494
H          -0.16648135683834   -1.62313361609750   -0.89506914496426
H          -0.03697798753186   -2.20419609452573    0.52695535469361
N          -2.63487688546096   -0.81693868431655    0.40934394633122
H          -2.18778914617046   -0.32394243621791    1.24095242664320
H          -3.50961400942386   -1.27155889566733    0.64259075677011
H          -2.75547086447826   -0.08783122094284   -0.33260630595332
