    26
        -50.46182312  Gyration_radius:  2.41331734385 Dipole_moment: 5.186
 S          -1.25810101061036    0.86597238833660   -0.83364125476850
O           0.00408077811264    1.48967619362729   -0.42532030532235
O          -2.32974004048782    1.14763558937433    0.08006468040971
O          -1.05003769843188   -0.57920900361938   -1.02217503107270
O          -1.62666503965113    1.45350432823735   -2.23014841618261
H          -0.91646178575873    1.11261613259528   -2.80284358701705
H          -0.90719190719189   -1.36911327825711    0.37271227087024
O          -0.79397632893337   -1.81409838679473    1.25106161289411
H          -1.18416859948707   -2.68467937482073    1.16146922767541
O           1.71998933547476   -0.84145495627981    1.71881065627392
H           2.05455151436870   -0.70369820987654    0.78165175137141
H           0.91960740403238   -1.39051691403901    1.63529658269885
O           0.19828641838786   -0.21010240127891   -3.26448067821153
H          -0.17247924246086   -0.55427398570777   -2.42197473801976
H          -0.17440413135209   -0.74558982861156   -3.96809675379472
O           0.58184639734841    1.34788380407600    2.03168390592280
H           0.39090417727294    1.54788103834760    1.04737567158302
H           1.16222151331860    0.43432025346614    1.99431512154667
O          -1.70644514831260    0.43674869958251    2.53719013646492
H          -2.13198928096089    0.78511796406597    1.72158374618571
H          -1.53143128650425   -0.50006830876576    2.34219274133355
H          -0.35236440647166    1.05653510884379    2.40015588493031
N           2.28381145566815   -0.20282872181767   -0.77886267245986
H           2.15528222207405   -0.85530507604300   -1.54207294955858
H           3.14485237241068    0.30069544115380   -0.95166674401543
H           1.52002232817477    0.47235151420284   -0.83428084973742
