    26
        -50.47157784  Gyration_radius:  2.49379095633 Dipole_moment: 3.794
 S          -0.37862458495334    0.26856264326557    1.40451708428161
O          -0.24104122079463    1.48856632305323    0.64435017449111
O           0.74709999955235   -0.63320700206881    1.19340262340653
O          -1.65439236008736   -0.40278015681794    1.12292282214165
O          -0.36262266020092    0.61488592725579    2.92763753491155
H          -1.21564603334682    1.07134082724732    3.05033218555268
H          -1.73686955800067   -0.77833228690495   -0.43538962667286
O          -1.74069809258576   -1.00160646297434   -1.40232909127858
H          -2.63149118791251   -1.29369507794675   -1.60246513346434
O          -2.92863823750411    1.24429482810988    2.71367692238488
H          -2.68228126997684    0.63567295930597    1.98765038029890
H          -3.51292861469361    0.75323401650124    3.29582716025303
O           2.98190689768152    0.51926286903228    0.44642673504188
H           2.12389147227343    0.20849728126967    0.82076850482892
H           3.66088839685160    0.02783369356206    0.91210708786236
O           0.73089477381182   -2.14185148598883   -1.00844439341038
H           0.76418463443492   -1.77117216538102   -0.10124285898890
H          -0.18313144717058   -1.98012066759856   -1.29598546560307
O          -0.27761211997266    1.27632668876318   -1.96397786664839
H          -0.27345879036784    1.53720867527307   -1.01231776212459
H           1.11259994514880    0.60265479742425   -2.06660675247771
H          -0.91551024931510    0.54435202461862   -2.00149531921865
N           1.97458010645653   -0.03518016637743   -1.96904819429494
H           2.51810635704316    0.28642363143215   -1.13376535865257
H           2.54011782122478   -0.04889853090993   -2.80941841076519
H           1.58067602241911   -0.99227317312912   -1.71713299186395
