    26
        -50.45084729  Gyration_radius:  2.48295802555 Dipole_moment: 1.870
 S           0.10548838640636    0.91629845280331   -1.24406167389709
O           0.59311315874792    0.30721025063134   -2.44766737829478
O           1.04267291299101    0.84321021029251   -0.14447085152777
O          -1.22162541887249    0.25146781056498   -0.82102651793090
O          -0.29920602941195    2.35105957548144   -1.50050436952038
H          -0.89004612880546    2.67850705331879   -0.69714856388818
H          -1.11433877795561   -0.75494676134643   -0.80437096597709
O          -0.72510051346196   -2.25248591913015   -0.75759646202657
H          -0.39862430775416   -2.51179637410361   -1.62558845897430
O           1.76014589905479   -2.07949224657341   -2.21973000416204
H           1.38281374908910   -1.18747724549108   -2.36469952583909
H           2.37202005156392   -2.22649034629894   -2.94213129154431
O          -0.90214827497798   -1.36060672807689    2.17063847955493
H           0.00727875410383   -1.58747922690811    1.94582280431955
H          -1.45169996853427   -1.73454566476996    1.47776347506921
O          -1.60683858824308    3.12520978414202    0.47968547191628
H          -1.25802438797668    2.49233208977224    1.21283201111990
H          -1.30006292656296    4.00683629755112    0.70401548951681
O           1.51971350217544   -1.69379046825943    0.51918098059868
H           2.03628800316786   -2.01846035077170   -0.23178189410277
H           1.46135224913906   -0.72585631053515    0.38174112529752
H           0.08929010917594   -2.19909289560458   -0.19503013542997
N          -0.47027641730260    1.53449348776668    2.16738619250246
H          -0.93863485153226    0.64296517125300    2.31915447928334
H          -0.11312309095274    1.84930163039935    3.06069537391261
H           0.31957290669467    1.33362873386081    1.55689221003568
