    26
        -50.45662063  Gyration_radius:  2.60081470792 Dipole_moment: 5.228
 S           1.15171497930635    0.50091296693659    0.67011783691904
O           0.49516778590788    0.94866051021482    1.86725295687885
O           0.47019754638496    0.91964621900736   -0.55115176217961
O           1.14391466809935   -1.08367018884095    0.65234222313425
O           2.58451158854759    0.80932633903332    0.62781799361389
H           3.06038635940246   -0.11080158141125   -0.30814738877780
H           0.29910542853691   -1.42077298631905    0.25083905771415
O          -0.95876720938159   -2.01150472750532   -0.57546196166510
H          -1.53524129336560   -2.53087438675535   -0.01298583495288
O          -1.64687929476856    2.41235924264313    2.31444246543584
H          -0.82665850854690    1.92589423587061    2.07657631735148
H          -1.63179232667706    2.47453257070402    3.27119693017150
O           1.02996790623864   -0.89026213401321   -2.33880852998071
H           0.75200794631102   -0.08954563070205   -1.82955098839289
H           0.38899084392843   -1.56620538761403   -2.08663841390617
O          -3.51803073943905    0.88211059378029    1.18630444317155
H          -2.84217412203493    1.43772991647591    1.64085129479380
H          -4.23428954230497    1.47634188829974    0.95660134713250
O          -2.09800369496051    0.24565297391470   -1.00913463125008
H          -2.65770089304819    0.45153447469353   -0.22830852640509
H          -1.26778673424276    0.74007401248743   -0.88653758002994
H          -1.47986277022839   -1.17441575843723   -0.80713082371327
N           3.30849658888855   -0.91146406977288   -1.05725067105793
H           2.42703072194490   -0.99912660690480   -1.66496475997554
H           3.46447516812577   -1.77554269866370   -0.54728249406797
H           4.12121959737423   -0.66058978713533   -1.61098850995710
