    26
        -50.45651711  Gyration_radius:  2.48718818258 Dipole_moment: 4.651
 S           1.43490681373486    1.08839310883506    0.38016913820629
O           1.77277370564410    2.47573217335691    0.47367446043023
O           0.68656925074171    0.76498009328395   -0.85000775252050
O           0.46522981025217    0.80242422467351    1.58617612239658
O           2.55435271485154    0.15349233331769    0.52391341673163
H           2.47699592656382   -0.88539064141818   -0.56191070028304
H           0.24161486708968   -0.15265320163316    1.61652486487391
O          -0.56783219390312   -1.65282031961606    1.53624551170872
H          -1.19215279719395   -1.63113711632737    2.26304813370143
O          -0.79817214723841    3.17458429695441    0.62874349051070
H           0.13306753331902    2.94822152806245    0.43619797754526
H          -0.80941949000041    3.38211062335730    1.56584964155372
O           0.11982528195810   -3.00868845847212   -0.82607441076048
H           0.09893536878958   -2.97002028190320    0.14011117785578
H          -0.62268643346840   -2.45381615117740   -1.10746006474218
O          -2.83485208220314    1.46600568038738    0.15667138699096
H          -3.36332073825316    1.96055438325628   -0.47156363360526
H          -2.05662860878079    2.03760124412086    0.34687194394991
O          -1.49539679556245   -0.67641471443132   -0.68899818885247
H          -2.17061918642438   -0.01504293310620   -0.42292143618158
H          -0.70170969491016   -0.11099824588366   -0.83798592432598
H          -1.05460671481565   -1.30930688351663    0.73170866278393
N           2.05797756142048   -1.29731739635556   -1.47303094449329
H           1.42527596010320   -2.11384895773158   -1.26529134875886
H           2.75089276738256   -1.50130156640527   -2.18386051487976
H           1.44897932085571   -0.47534282165535   -1.69680101982088
