    26
        -50.45514390  Gyration_radius:  2.42745415083 Dipole_moment: 4.701
 S          -0.25174870055086    1.57197960328694    0.29623920278062
O          -0.72702457322660    0.38782437710781    0.98616501670311
O          -1.25159413634262    2.26253665018948   -0.45113718903445
O           0.90206403236165    1.13549298748170   -0.65040788050992
O           0.45507038573195    2.47974654301109    1.27443771627990
H           0.94855166661263    1.82552441607856    1.93483019755305
H           0.54065623175653    0.53011520325424   -1.37384212457423
O          -0.13126333484180   -0.39945776440728   -2.42302858636001
H           0.11836563291589   -0.16406589860407   -3.31874709435955
O           1.46565823623357    0.72253943121276    2.71672778913645
H           2.02754883023374    0.16651969520882    2.07618177736187
H           0.66341658928119    0.21127470711514    2.86297541222865
O           0.24818344604186   -1.93831080967856   -0.04448988842462
H           0.17850080226616   -1.74678825233594   -0.98667237255446
H          -0.12403506257915   -1.16171930099784    0.40562400988867
O          -2.83554012442587   -1.16215201294301    0.18820545951351
H          -2.37186892615211   -2.00228127110892    0.12978757844907
H          -2.23618280284758   -0.56219066085521    0.66093501098918
O          -2.51557575305318    0.40813778025459   -1.98268689380846
H          -2.28672484909039    1.23153452899674   -1.51815977222057
H          -1.11037553036460   -0.14180397346289   -2.32774901182093
H          -2.86580004518671   -0.19189937752559   -1.29130813542961
N           2.71098339527940   -0.73052507009996    0.92777487562312
H           1.99978097020882   -1.39458814478793    0.61932583724483
H           3.56089313674312   -1.23970069390727    1.13165641149388
H           2.88806051300788   -0.09774271248359    0.15736264382760
