    26
        -50.46248716  Gyration_radius:  2.40580992666 Dipole_moment: 4.398
 S           1.07148325637721    0.30728507483836    0.58438290844234
O           0.16349462987714    0.80471431807728    1.59804469025016
O           1.05263388209988    1.15087884401365   -0.61229929992620
O           0.75571163097071   -1.07682331034691    0.20419604818150
O           2.49868016275502    0.32021660750571    1.18375214829382
H           3.05566537746179    0.00442888716245    0.42256199919642
H          -0.26283666920270   -0.84226940783087   -1.03158787237400
O          -0.89209113762952   -0.54270913800458   -1.73538430944629
H          -0.41325374286928    0.15413716784657   -2.19444011891153
O          -2.21883625506371   -0.22183672243958    1.84339164575827
H          -2.03214702034437   -1.18180779257922    1.69870670499216
H          -1.32319319709708    0.18236640048945    1.96004693430953
O          -1.25959666425406   -2.56516460507938    1.10196074594136
H          -0.41699140189313   -2.12365245487558    0.86608012132424
H          -1.57160617412837   -2.98954799375983    0.30033018962956
O          -0.98505367627910    2.69525409326901   -0.06787593179639
H          -0.87304932353775    2.77617886017010    0.88491832657246
H          -0.16681275079583    2.22416816121951   -0.36187515261784
O          -2.62220635968965    0.77473644864277   -0.37501933974678
H          -2.55486177318505    0.30983734836034    0.63809497870935
H          -2.07542969712883    1.64618530891387   -0.28529167244600
H          -2.05344630788517    0.18683866573226   -0.98360570649052
N           3.34513673255255   -0.45136796272252   -1.15977158448919
H           2.94490544580774   -1.37539115361143   -1.25923341302997
H           4.17503008262498   -0.38924176863784   -1.73515316877389
H           2.65867094045640    0.22258610364959   -1.48492988154586
