    26
        -50.46167938  Gyration_radius:  2.40127288917 Dipole_moment: 7.743
 S           0.98557765683846    0.11039751754638   -1.19818619945922
O           0.13452379708651    1.04659206821446   -0.45127406790601
O           0.42405075407983   -0.27171576104122   -2.45921609089316
O           1.08295397955158   -1.17285078571526   -0.27192468405487
O           2.36440884309818    0.58799120923207   -1.23228963038092
H           2.69436762373864    0.50797954332011    0.14983309429815
H           0.19276060746432   -1.62572482314185   -0.26765830965810
O          -1.26266097460136   -2.27755051360342   -0.22209316289030
H          -1.24036496102134   -3.19383507357539   -0.50258680648899
O           0.80077776821144    1.90390978121278    2.00075313276266
H           0.10391174766774    1.37740729270979    2.41699518082907
H           0.53019561636034    1.94847691020642    1.06249977355968
O          -1.14439897784815   -0.10561489277979    1.63923696199584
H          -1.40981351427082   -1.00066162702593    1.40761017558325
H          -0.72918406788711    0.24815704985793    0.83204426492101
O          -2.54695054745236    1.38282796778042   -0.74914332773026
H          -2.77244906511412    1.17107118545080    0.16124800242523
H          -1.57770322141072    1.46519061137104   -0.76669054332428
O          -2.16318846492494   -0.88988182089098   -2.17911283013428
H          -1.71707361893749   -1.77304695844696   -0.97560539185675
H          -2.52224951235495   -0.05970578403995   -1.80630764172293
H          -1.27485255286869   -0.65464338755648   -2.51222532752221
N           2.77631338543839    0.35214969800390    1.24710465069768
H           2.05036197364732    1.00352004537838    1.69137863680876
H           3.71469921578217    0.53761944060539    1.58682750884906
H           2.50598651974504   -0.61805887298166    1.39878266134831
