    26
        -50.47291086  Gyration_radius:  2.43191573581 Dipole_moment: 3.134
 S           0.60880210782477   -0.04224477983173   -0.91608006137471
O           0.23192121015226    0.27720264104392   -2.38627042347229
O           1.80740438473906    0.69444661371603   -0.56212281213285
O          -0.52409864203840    0.36432759425866   -0.07738113690535
O           0.79214955713269   -1.48890389409365   -0.83456778157953
O          -1.61305288774687   -2.63943784714322   -1.08070297108766
H          -1.99956538296060   -2.37715295804131   -1.91736841029698
H          -0.69995698495000   -2.28878870584056   -1.08607197036846
O           1.48882552133299    0.67149721041356    2.04694803785370
H           1.75471350281345    0.73845911771285    1.10103246934325
H           0.81540384781073    1.34657825559440    2.16381799455697
O          -1.99146364733436   -1.40220969700734    1.29751320555540
H          -2.12641418106845   -2.02373556849121    0.55646911845561
H          -1.67970566301478   -0.59139918465735    0.85062156133768
O          -0.70195227508578    2.98295009355204   -0.01877281285954
H          -0.66447755028306    2.00071124045011    0.02065474329410
H          -1.62426026487479    3.21177250266439   -0.14562180745170
O           0.96880039080929    2.72798300834983   -2.13015432135240
H           0.35788575039816    3.06294366818291   -1.44142525612245
H           1.71341815994386    2.35992132498809   -1.63360178894008
H           0.44772204197250    1.25098237656040   -2.48141865408983
N           0.54160074997507   -1.79520248612600    1.76730210741816
H          -0.53147244413094   -1.74706611042418    1.78106492816524
H           0.92833866828180   -0.86119348817293    2.07511135223321
H           0.91711025793694   -2.56805991567000    2.30598450217483
H           0.78232378235252   -1.86438099197534    0.74504020763355
