    26
        -50.45514391  Gyration_radius:  2.42743848117 Dipole_moment: 4.700
 S           0.34706205762888   -0.36046297382436   -1.53902103763195
O          -0.86741085878609    0.15473655808252   -0.93584853830830
O           0.26633281728051   -1.72033062142471   -1.96255366855354
O           1.49354597230434   -0.20237562810552   -0.50034906546810
O           0.78856206828938    0.55706430284883   -2.65398703751066
H           0.54786286531983    1.52371474004301   -2.31352492458674
H           1.31720987426443   -0.79670657944481    0.29728997908803
O           0.92755181169358   -1.73807279008202    1.47119228176239
H           1.66171458079486   -2.29330325659237    1.74096718115362
O           0.06976894696204    2.71219872025655   -1.64077662663686
H          -0.82797301714023    2.44634967551829   -1.41778066591318
H           0.56852456589168    2.74973404588680   -0.75463329785657
O          -2.73069372265357   -1.35190309765471    0.38331675135609
H          -2.25176291946324   -0.78717461655961   -0.24479073175792
H          -2.72349394413084   -0.87758619050065    1.21943686966521
O          -0.63481170904467    0.64151696612467    1.73504919307220
H          -0.80087095170987    0.52625157922689    0.78461204106391
H          -0.13816847177460   -0.13916408474925    2.00539952227727
O          -0.72983582624292   -3.14375748688391    0.12628812762920
H          -0.42960462778329   -2.87962681297545   -0.76039086539266
H           0.25732458235689   -2.35774970138560    1.02308994721553
H          -1.59718006391329   -2.70397616283789    0.24871955863210
N           1.26248950465489    2.58394099508039    0.68762653423623
H           2.05040825170297    1.96533969246823    0.54005458198570
H           0.59125747306026    2.08725962941810    1.27478585296561
H           1.58219073047464    3.40408308806656    1.18582802757039
