    26
        -50.45514394  Gyration_radius:  2.42749250072 Dipole_moment: 4.702
 S           0.39146033353927   -1.22318325392313    0.98487535721319
O          -0.81138076636782   -0.41617782560879    0.90633706590753
O           1.20967724260848   -0.95630334178335    2.12260808845469
O           1.20797852920644   -0.98079093226368   -0.31616811982395
O           0.02978039982438   -2.68506154221545    0.87512571302084
H          -0.76980160839382   -2.71012507286762    0.19086620559587
H           1.52854067859478   -0.02320517964631   -0.34582673277826
O           1.94859756999637    1.47195224607461   -0.28311749771089
H           2.88207935080247    1.58771449331742   -0.47087386538293
O          -1.87060251247854   -2.45822846702853   -0.71390454426759
H          -2.34373653026045   -1.76885356764476   -0.23720410340893
H          -1.46441515169888   -1.99625069036071   -1.52445148955831
O          -0.77950568961789    1.39002679050470   -1.13370410446168
H          -0.89140572050642    0.76037101169836   -0.40212882690543
H           0.12832541762910    1.70644170165791   -1.06351352102507
O          -1.09664169158689    2.08933293208907    1.96591282331316
H          -1.16164666292274    1.14277863408274    1.75942757769905
H          -1.35023711279934    2.55044288143359    1.16143384365729
O           1.56518322803219    1.73511608415082    2.22990346626422
H           1.55040268810544    0.78908968422883    2.45557696282134
H           1.83433551660327    1.67544104829061    0.70661664901719
H           0.63698808112235    2.03759423862538    2.31707628531158
N          -0.73978762303250   -1.09690532622635   -2.64486144627679
H          -0.86562144651193   -0.12495535583211   -2.35945105240585
H          -1.01574175018550   -1.18701495745593   -3.61377538576413
H           0.24717522074465   -1.30924623375510   -2.56677935756078
