    26
        -50.46658034  Gyration_radius:  2.4001678751 Dipole_moment: 4.043
 S           1.29297091556161    0.07162870176527   -0.29845961518660
O           1.34702542355730    0.58673586653579    1.05753002615293
O           0.20472026451409    0.71705111898246   -1.05157464499768
O           1.14100091119068   -1.37767142696015   -0.34381620665329
O           2.62471001873767    0.45718808744959   -0.99046302839344
H           2.50166995167134    0.07420515632782   -1.90020616316281
H          -0.07864491487027   -1.93218891581672    0.50795418218969
O          -0.89506701379761   -2.19231600512676    1.01614663879702
H          -0.87128828914979   -3.14757406109788    1.08878876466107
O          -0.18990275801637    2.76057945300146    0.53416787702365
H          -0.07540776847917    2.14950032069733   -0.23099422633369
H           0.57338973646991    2.55395293503793    1.08925505539082
O          -2.16424668928116   -0.18415590097730   -0.34121225864195
H          -1.32854923865959    0.12770898590301   -0.76262284527995
H          -1.94083560083037   -1.03723328226559    0.07044054771566
O          -2.05222059550105    1.41412650739533    1.59738482222175
H          -2.26682480292266    0.79042167221094    0.78340404642257
H          -1.37410227944797    2.10082559407718    1.21119524840769
O          -0.49371409566489   -0.15621613304253    2.76994842039652
H           0.32029278842877    0.11699542531483    2.28415591486355
H          -1.46750980740270    0.79236387867469    2.22353863552923
H          -0.72334054886986   -1.02127630354733    2.38279896670878
N           1.68202305485876   -0.77491532354473   -3.08072097689155
H           1.96878237860756   -1.24454917895951   -3.93013598551801
H           0.88849434781009   -0.18035307331319   -3.28513678837372
H           1.37657463146748   -1.46483411873522   -2.40136640704637
