    26
        -50.46455201  Gyration_radius:  2.42081820756 Dipole_moment: 4.946
 S           0.86931390168336   -0.96893036591325    0.24232768287672
O          -0.25885229661249   -1.54381285392695    0.96700525750504
O           1.55959861360845    0.05457662487411    1.01086698715494
O           0.42492349376008   -0.42088598399209   -1.04702477534544
O           1.84334014094230   -2.13195159528871   -0.05735525864700
H           2.62543673091661   -1.65968505417254   -0.46253158449954
H          -0.29656498995078    1.01682699806121   -0.98871395584380
O          -0.80362190131623    1.86657263854391   -0.90281950767324
H          -0.68391528687393    2.33422838871323   -1.73044464084195
O          -1.87065975557905    0.06772818015023    2.02908695862431
H          -2.48653932723399    0.24799539136370    1.17007276066339
H          -1.24290219879063   -0.68343973397377    1.71778732037542
O          -1.93859743868688   -1.64871989613662   -1.26749569016394
H          -1.05216094880881   -1.24443347492342   -1.35415139733490
H          -1.83437739060418   -2.30056840802606   -0.56835613435065
O          -3.02303930177678    0.48200977668989   -0.14480218524183
H          -2.80428726460244   -0.35191670633786   -0.63574298763788
H          -2.40747450874266    1.14917445662300   -0.50397429719634
O          -0.15606318752108    1.88752682186536    1.77189730511421
H           0.60417510060152    1.27791265866677    1.61531367046522
H          -0.38581540937844    2.22564309139546    0.89102618141300
H          -1.22920603100371    0.89403998022201    2.07661284169786
N           3.56168295834231   -0.38701518011754   -0.93253195829238
H           3.26803176889286   -0.01614563734561   -1.82638095104617
H           4.56975629416871   -0.32830125467605   -0.87125749171653
H           3.14781821461063    0.18157114765402   -0.19841417006383
