    26
        -50.46044995  Gyration_radius:  2.45551514039 Dipole_moment: 6.761
 S           1.11755500212323    0.89245416446182    0.62762120337607
O           0.50371476594173    1.71393677399615    1.63050056500815
O           0.50704023047648    1.04348015536403   -0.69353480660178
O           0.92304423054439   -0.62815544670098    1.01768256532530
O           2.57542829366922    1.01418196541730    0.55225938004677
H           2.92719376802581   -0.16455840702728   -0.12908527514016
H           0.07505657132565   -0.99354396024952    0.64446759752614
O          -1.13726842021541   -1.76893409594070   -0.08206256879319
H          -1.44980954069966   -2.46557062368486    0.49760672284657
O          -1.83480498448142    0.84910662463424    2.50021817859806
H          -2.23903940251577    1.61259778785807    2.91611334832929
H          -0.94415595410143    1.15052713364897    2.21366169223955
O           0.81513563269448   -1.18408297442880   -1.97577500639284
H           0.10706307366033   -1.68533017961000   -1.54441865742715
H           0.64899987584330   -0.25637170921456   -1.67572929885976
O          -1.87108832746541    2.12877528566065   -1.17473177009489
H          -0.96462653804717    1.84165205025710   -0.93960473940638
H          -1.88067411509518    2.22175976686629   -2.12848589436803
O          -2.92022521370954    0.04167352269176    0.17581869712420
H          -2.69159038163203    0.81443980494653   -0.37927069886913
H          -1.87219462974610   -1.06425444117768   -0.06608863373777
H          -2.66846055614148    0.31238655374307    1.08459135274047
N           3.06826021906511   -1.14464978256507   -0.65309467407699
H           2.18212222680358   -1.27539733645787   -1.25272958830063
H           3.11553212065054   -1.86842053308626    0.05778119820762
H           3.90779206297893   -1.13770210948914   -1.22371088932276
