    26
        -50.45034157  Gyration_radius:  2.64961638143 Dipole_moment: 5.106
 S          -1.00531035197566    1.17064734896292   -0.12314686094842
O           0.38466131575746    1.39479601981518   -0.38451061328833
O          -1.34842967932224    0.75677344565678    1.21106567424511
O          -1.53920352029737    0.09883406534241   -1.10005526147263
O          -1.80614549502767    2.43032980006285   -0.48381763185790
H          -2.75058709689158    2.25780085624440   -0.11529275597284
H          -0.76364087549854   -0.21125156441493   -1.70221803375774
O           1.17140926846829   -2.40459165337954   -0.45465214708924
H           0.76735020216971   -3.27204796204923   -0.41623076490863
O           0.55138871639177   -0.58796672777811   -2.32277156161720
H           1.07479209126642    0.16678990706587   -2.02531025060771
H           0.82408236972506   -1.33923693088133   -1.74908451225920
O           3.60791748171547   -1.08765673631866   -0.61846304353025
H           2.82155595433605   -1.65777415180981   -0.62264732252350
H           4.32424291452521   -1.60905150658878   -0.25331691060719
O           2.51934530883599    0.66856877511035    1.22647918881696
H           1.87452149615679    1.17017348775317    0.70774287883828
H           3.04730460424028    0.17894686140474    0.57061954119845
O           0.59051982206116   -1.11027461227148    1.70978761234183
H          -0.18088382026971   -0.52531922030341    1.65134225355691
H           0.91103548083100   -1.93395200274846    0.39598610459715
H           1.36294813157092   -0.49678598253211    1.74217951596140
N          -3.96567868389380    1.63313226135878    0.63580124330727
H          -4.54012239212833    1.01578045959855    0.07790431110351
H          -4.56394962738312    2.21935099379448    1.20251120017929
H          -3.36912360531303    1.07398476884441    1.24009815632920
