    26
        -50.46194413  Gyration_radius:  2.4522515431 Dipole_moment: 2.250
 S           0.74988652195753   -0.48605766412712   -1.94482328425756
O           1.51765886710526   -1.64398168067381   -1.55295523227127
O           1.32057429234400    0.75155176029121   -1.42271849075971
O          -0.66237999334569   -0.61191965699947   -1.60475841128827
O           0.77800751574212   -0.36481570428013   -3.51996783787551
H          -0.08969605681355   -0.67953646271466   -3.75028173079063
H          -1.01459814651241   -1.01933709967949   -0.13660307832516
O          -1.24778760526004   -1.26797766772154    0.80448726377703
H          -1.77523729300940   -2.06627231711256    0.73613430304751
O           1.44639587887726   -2.04941695323023    1.04291958046088
H           1.56274363890722   -2.09440621710706    0.06718199706053
H           0.49031938646580   -1.94468674523224    1.17453020097645
O          -3.15359240250572    0.82268198728523    0.23540575875810
H          -3.27237073815183    1.36829046119577    1.01567598341156
H          -2.62352557062961    0.05841622140390    0.50207729787220
O          -0.78661893275040    2.15982121056181   -0.43178258455720
H          -1.62249041467042    1.71087338577342   -0.63538971298222
H          -0.08878622909233    1.70642306900356   -0.93558681139357
O          -0.32076967411204    1.19295975471589    1.96330683801239
H           1.19044602154485    0.89853754600030    1.59244394314667
H          -0.54735402651122    1.70639320221072    1.14085031714803
H          -0.73482394860671    0.32860138115126    1.84278385999391
N           2.04995791821749    0.50020098068265    1.09784738070904
H           1.91423554059191    0.68462142920269    0.06936562140539
H           2.00123636280560   -0.55627617398245    1.21134968794866
H           2.91856906741348    0.89531194338280    1.43850715077700
