    26
        -50.46194408  Gyration_radius:  2.4522654302 Dipole_moment: 2.250
 S           1.23214780595140   -0.70473333183847   -1.60196621127211
O           1.48964358740683   -1.41026674243017   -0.35062890742757
O           2.04560009693765    0.48064424395407   -1.73258648941528
O          -0.18842988812516   -0.42901445443006   -1.78081479216839
O           1.60016943561424   -1.70659934363100   -2.76701765296843
H           0.86023546980736   -1.59470795170043   -3.35435672862882
H          -0.80339731513296    0.74076035290984   -0.94486754607394
O          -1.20683705812590    1.48020662409468   -0.40418122265428
H          -1.58752557850881    2.08685596702231   -1.04230334820793
O           1.44518913152473    2.29931163026910    0.06743203489447
H           0.47922230862856    2.27396650382083   -0.02545601944051
H           1.78508457816341    1.77886875114589   -0.69495053992210
O          -0.96372190479591   -2.02896680451402    0.65134940690683
H          -0.11330361578142   -1.93530765752730    0.18837405934970
H          -1.66013951447457   -1.79085270757882    0.01887071742295
O          -3.20807512254997   -0.58827858109319   -0.19782023779976
H          -2.65023320689060    0.19885773535926   -0.27159567581405
H          -3.57615712624639   -0.58983260733867    0.68823927540453
O          -0.92224051449260    0.14324813523757    2.12380410815511
H          -1.02590669928885   -0.75243051401515    1.70143229189378
H           0.65969050830779    0.19521148796097    2.07081492634491
H          -1.17241443569140    0.77568080333155    1.43787499033203
N           1.65620489795447    0.25131651505676    1.68888878586963
H           1.73270620262092   -0.49132683663343    0.94535503012302
H           2.36053024465479    0.13623092726714    2.40813779172389
H           1.73195772254141    1.18115784530013    1.17797196337351
