    26
        -50.46194409  Gyration_radius:  2.45225798172 Dipole_moment: 2.250
 S           1.19164615398665    1.75592205770222    0.27900771754209
O           1.26547753554018    1.69118357948394    1.71924038019778
O          -0.15610691334938    2.06675674166813   -0.18667348990908
O           1.71790685098826    0.55619254285462   -0.36111047165383
O           2.12361724963582    2.92713548340274   -0.22715560702100
H           2.87237286329369    2.44362869187896   -0.55967376783169
H           1.17909800635829   -0.82208818186265    0.14415907173647
O           0.82996872986649   -1.70747957115989    0.45406815324229
H           1.60137495785813   -2.20398826156108    0.73431595987731
O          -0.63761826575242    0.33010714272669   -2.22587882820641
H          -0.37225705658524    1.03346713408162   -1.60844579739648
H           0.15893550156041   -0.18525812298950   -2.42999846096668
O           0.85425626360142   -2.03057500580453   -2.41315613768868
H           0.08045632765490   -2.52830693981969   -2.68537654631548
H           0.88678360757761   -2.06338055082180   -1.44667815740216
O          -0.13715952711014   -0.30558253032112    2.69588372947992
H           0.16923454948598   -1.00028503440163    2.09097578632591
H           0.46524675278401    0.45460468782554    2.53195437965737
O          -1.82945737551433   -1.31157977927329   -0.56077671006798
H          -1.49692568638062   -0.74634180645136   -1.30999480719241
H          -1.03866869207241   -1.71287379941645   -0.17781380084030
H          -2.13153217351257   -0.12949206081794    0.44891893052923
N          -1.98199335149835    0.68734767290751    1.12156513316010
H          -1.36269455602411    1.37680478107698    0.62023043976023
H          -1.40137142762868    0.31089535769695    1.92940415815967
H          -2.85059032476322    1.11318578139337    1.42300873282389
