    26
        -50.44824563  Gyration_radius:  2.63855662885 Dipole_moment: 4.534
 S           1.62292046285626   -0.23731146685196    0.55446547154323
O           0.99764054491260    0.11539762067364    1.78933623153771
O           1.37987271154154    0.65812807934717   -0.54716379847821
O           1.18242995778853   -1.66591365461063    0.12398832063623
O           3.12681576767265   -0.42663372513564    0.74665355573725
H           3.48686498091956   -0.52921982601813   -0.21645259549140
H           0.17639926122405   -1.74925138233639    0.12467477426659
O          -1.37460438372845   -1.84474123522418    0.24482719987236
H          -1.64075020082152   -2.74000986713507    0.46328794703432
O          -0.88959684016352    2.13172298816673   -0.90590338048282
H          -0.02388557656289    1.71568970916401   -0.76451267368011
H          -1.40890016327720    1.48515051867723   -1.41662711056194
O          -2.54380053433895    1.88105453374401    1.14209148802523
H          -2.55119837627285    2.67488468705507    1.67734276270832
H          -1.89492991115491    2.04997122160910    0.40995316829687
O          -2.63566109456152    0.06788741162364   -1.40001412034046
H          -2.19132890081040   -0.67793601445545   -0.97174476654599
H          -3.17795815031849    0.47764952735832   -0.71892224904008
O          -1.61586515153838   -0.35085372477928    2.29005791975764
H          -2.04382630600888    0.46887443156835    1.95209384311504
H          -1.54139182828183   -1.28243343164600    1.08350447514309
H          -0.67088551860141   -0.13216622036775    2.36308163640642
N           3.60557520432765   -0.54973922141499   -1.75603050645741
H           4.39715866079580   -0.10567970159657   -2.20197682992779
H           2.77538260411934    0.02189165466868   -1.88906335876120
H           3.45352277021372   -1.45641292216903   -2.17694740426519
