    26
        -50.46906643  Gyration_radius:  2.46841637605 Dipole_moment: 4.284
 S           1.35732415931172   -0.75069238800312    1.51814046620148
O           1.03319915819938    0.64746980554888    1.67931025631341
O           1.38537363649243   -1.13056120847133    0.10263692518611
O           0.56413611988291   -1.65484291784108    2.31759854630840
O           2.85130017765637   -0.92408061331074    2.03335075727084
H           2.83192287408909   -1.82266595588427    2.34521921594286
H          -0.88613442672702   -1.11524719341352    1.82858860033948
O          -1.75222753630714   -0.81620387050746    1.46833653404080
H          -2.37078717114113   -0.84195913556167    2.20077511527071
O           0.52892524723024    2.58520848511713    0.04862797963142
H           0.72631851670677    1.87600603752528    0.71357988735974
H           0.74069675122686    3.41648938711737    0.47484333534838
O          -0.96510423600655   -2.15106076904540   -0.85444664709399
H          -1.52441578859404   -1.89518612665174   -0.10769688531715
H          -0.05928531270422   -1.97446084258967   -0.54830182084263
O          -1.32334277056538   -0.06235774882463   -2.45702649274438
H          -1.30200452259315   -0.95657653516422   -2.03831883945278
H           0.06308290453872    0.37252596121274   -2.20048102650778
O          -1.99392663185761    1.32810813241351   -0.29010302130006
H          -1.22976336243797    1.89978327421842   -0.13141870520059
H          -1.78416396829242    0.50274768468558   -1.79329808519336
H          -1.94239797650437    0.62154744924260    0.37523605175693
N           1.05030935142794    0.65797170476808   -1.79696100500967
H           0.95734796173098    1.56784702286082   -1.31869876989055
H           1.76572413949155    0.68079790146208   -2.51396084014396
H           1.27789270575492   -0.06060754089447   -1.05553153227977
