    26
        -50.47037227  Gyration_radius:  2.4824942596 Dipole_moment: 2.684
 S           0.57074220366513    0.72951431132645   -1.08027440111119
O          -0.18462392499473    1.45073635619988   -0.05555719121128
O          -0.22212611676349   -0.33668137679894   -1.66203689670715
O           1.85977976317766    0.27691155756831   -0.56997615817315
O           0.84760602199610    1.74065873867758   -2.24029348010838
H           1.54307930009436    2.32850582054697   -1.88216319429649
H           1.74879113180599   -0.89096321337925    0.59260708467479
O           1.60865589214964   -1.56041871487739    1.30075752948842
H           2.47690515312893   -1.88304166817025    1.54668679521005
O           2.92749748512852    2.66147525158705   -0.89915994727822
H           3.78479064140281    2.60334122502549   -1.32725663526106
H           2.72742714206811    1.77102999566661   -0.54994349739836
O          -2.46847224155932   -1.31490172287971    1.29901548439676
H          -1.89782690370541   -1.97619350546574    0.83542772016950
H          -2.63546370683520   -0.33698829051000    0.23479054925808
O          -0.58195930461912   -2.54775635384471   -0.09649399156852
H          -0.43282767624269   -1.88765346221744   -0.79495041231486
H           0.19130286387194   -2.47028535953689    0.48285317160851
O          -0.43123172094657    0.06563749057504    2.28787316540182
H          -0.29585028395502    0.70384580770781    1.56625776650592
H          -1.83476235307267   -0.82899152509516    1.88185817710876
H           0.30535244733862   -0.55893103053512    2.21253186901122
N          -2.49756401257612    0.40377967843025   -0.58717851585955
H          -1.98879478921319   -0.07364648610940   -1.34971169568268
H          -1.76622692717423    1.08026673688453   -0.25291040291579
H          -3.35420008419583    0.85074971922170   -0.89275289295073
