    26
        -50.46575956  Gyration_radius:  2.39061667535 Dipole_moment: 5.481
 S           1.28210279582116   -0.85323701049945    0.27547517064702
O           1.60112447800580   -1.03562894514251    1.66050414197642
O           0.98494515615307    0.54530746564462   -0.07405489119570
O          -0.05879048951024   -1.63952115284617   -0.03594660797515
O           2.23421153130686   -1.40994799491423   -0.67802289226653
H           1.80000530421303   -0.74615445334196   -1.88376100893889
H          -0.74686024393989   -1.30566584936898    0.60187555419776
O          -1.84914929997741   -0.64573146393295    1.57221860528138
H          -2.35563103788825   -1.31122120099071    2.04064077042490
O           0.39603318794778    2.51176038773941    1.67072643925049
H          -0.36748661448282    2.89055724308315    1.22940969340127
H           0.77164936876180    1.86054720188600    1.04840021584066
O          -1.15785393771872   -0.89489946712159   -2.49831000983719
H          -1.49855963954734   -0.13410090980698   -1.96338273889112
H          -1.01419763862137   -1.59563527413133   -1.84834302431218
O          -1.55482425124010    1.00029969740167   -0.69200793683983
H          -0.60571023571844    0.92547893101965   -0.45594251738599
H          -2.02151303024850    0.59876277073389    0.05189449010337
O          -0.11390154318736    0.31821786452785    3.18556993092434
H           0.06875216015484    1.23177878843494    2.89088244759288
H          -1.23911784256905   -0.22390899704406    2.26681406569216
H           0.62810841440090   -0.21001470515645    2.82724547210120
N           1.33455453051056   -0.11348341867978   -2.65671776698599
H           1.82954081067177   -0.14773577360079   -3.54222233655230
H           1.34106648690129    0.82246004238111   -2.25123447081003
H           0.31150155980388   -0.43828377628007   -2.74171078542604
