    26
        -50.45363462  Gyration_radius:  2.44724530064 Dipole_moment: 4.275
 S          -0.26625865195526   -1.36928811972712   -0.24870089237128
O           0.57048254166720   -1.50509701650648   -1.40002429493367
O          -1.26667412308939   -0.33398825415544   -0.36971395247406
O           0.62162653959494   -1.06113410255527    0.99079981645972
O          -0.90482695629673   -2.68854441016744    0.13788697907819
H          -1.19415211581760   -2.58881771956638    1.13275610110857
H           1.32178675412888   -0.39431809313767    0.68414358665952
O           2.19930879665871    0.61989490550451   -0.06601690123067
H           2.53822526172626    0.10652233414910   -0.80363683080820
O          -1.93197609463450    0.27473797813507    2.16549068453851
H          -1.94632046218754    0.16576856659160    1.20052090571059
H          -1.20398108940599    0.89933679315913    2.32819183986493
O          -1.41633005726670   -2.24691620012815    2.55506151007168
H          -0.54317430538145   -2.24373835449723    2.95642361800495
H          -1.70647856196484   -1.28837772022967    2.52947581113612
O           0.24675681991565    1.97165710189459    1.88128477905025
H           0.07564712008432    2.32261114041076    0.99955339384385
H           1.15529908243148    1.66193840825679    1.87591277881507
O           0.12730273322947    1.86284197588327   -1.03035825307161
H          -0.53689726276845    1.18622072996319   -0.79983405720978
H           1.49049701080012    1.21465922583098   -0.45140924069229
H           0.28862723778050    1.70714781904980   -1.98917245467091
N           0.57160480609519    0.65396072612330   -3.40081236605211
H           0.58270409221478   -0.21988936252509   -2.87578503829126
H           1.37917364421332    0.65770684489031   -4.01209270477257
H          -0.25197278126508    0.63510478280454   -3.98994480788204
