    26
        -50.45723746  Gyration_radius:  2.47348838525 Dipole_moment: 4.248
 S           0.07633022935199   -0.02362800598658   -1.01809422147099
O           0.90413454674287    0.96852569592726   -0.28631932815169
O          -1.25169729387183    0.50000748972595   -1.24483369822487
O           0.03824188751837   -1.27335651077392   -0.24602320295604
O           0.74368547941763   -0.28871173229444   -2.36117243259854
H           1.70308528015191   -0.67779853023851   -2.18319185188733
H          -0.70053634505328   -1.04621032477834    1.13108377394077
O          -1.08590438560206   -0.75411392762325    2.00574819018500
H          -0.61602870940914   -1.24675110832893    2.68179535088119
O           2.44347416518695   -1.01831348207685    0.86731075938558
H           2.39108721426167   -0.05631412800553    0.83863692498285
H           1.56887225218762   -1.30701724170498    0.54306900201598
O          -3.36412522092961   -0.10176316044314    0.40668823937621
H          -2.74640442388204   -0.14640332223847   -0.34297372991148
H          -2.91772437538879   -0.54521369803255    1.13613940354767
O          -2.51639374235045    2.40362959311844    0.19336548565220
H          -3.12812278754443    1.66106609861272    0.40621808904285
H          -2.12442538817562    2.11857818102528   -0.64976347659135
O          -0.52972813128139    1.73162111331513    1.55685620951332
H          -1.38472031687160    2.12633374956452    1.05312416144369
H          -0.80228037860699    0.82264298343008    1.90113444618660
H           0.15910193723432    1.48892038571416    0.75687184510386
N           3.05875674946151   -1.23717007616840   -1.86564040892830
H           3.17706086879096   -2.17078127049871   -2.23506816121166
H           3.09324830768714   -1.27563589279534   -0.84179173966123
H           3.81101258099603   -0.65214289847585   -2.20316964969177
