    26
        -50.45329878  Gyration_radius:  2.50330935284 Dipole_moment: 5.758
 S           0.07775190914214    1.44135317450996   -0.60895017654220
O          -1.20553494380318    2.12627472899837   -0.45861073137238
O          -0.07144538136678    0.22656001620501   -1.40522120760229
O           0.64992298826238    1.11697502321441    0.70537880855851
O           1.03654331205734    2.40282925489409   -1.32647627525005
H           1.95483939568663    2.07678965068058   -1.05894297761724
H          -0.30070896864353    0.50635900046797    1.74466623776317
O          -0.98438284775966    0.12837457413935    2.38313470710756
H          -0.84746322770110    0.59239205236847    3.21087733275360
O          -0.99266909240436   -2.45177844312413    1.38783596970626
H          -0.85341215904152   -1.61415172899587    1.86085883639819
H          -1.49409890384678   -3.02451934050075    1.97038727659127
O          -2.07306578223073   -1.28777029074562   -0.77885752755786
H          -1.66729112919910   -1.88783443916797   -0.11466743730014
H          -1.31219348756798   -0.78187317075990   -1.17337216187240
O           3.11733995393714    1.27584000156172   -0.38627525795671
H           3.10214503139992    0.43185329929967   -0.90735354916628
H           2.54792395303852    1.11021953507525    0.37872766860401
O          -2.83334317590728    0.60434020591108    0.60576220739983
H          -2.25285304085798    1.34562194540142    0.11997876120130
H          -2.63582499521236   -0.28298276466049   -0.04072243009901
H          -2.30724495417349    0.42602186355110    1.43638244096879
N           2.50388908472108   -0.94437684302040   -1.75464401516538
H           1.53138555669803   -0.63317799562285   -1.72760644969908
H           2.54234303941671   -1.86476096089098   -1.33499510671482
H           2.76744785535556   -1.03857834879071   -2.72729492308839
