    26
        -50.46122198  Gyration_radius:  2.40367076406 Dipole_moment: 8.894
 S           1.46474633769114   -0.50873020373274    0.81338500460842
O           1.24843819660911   -0.52938645902831    2.23268196350397
O           1.39980469594417    0.83190625399097    0.23859691135622
O           0.27990159742705   -1.32888381540163    0.12686792590113
O           2.64101010385690   -1.23463632818479    0.33832080588488
H           2.29067372852426   -1.46324239759382   -1.02450479112229
H          -0.57915217764862   -1.10227082519444    0.55625808105770
O          -2.05634598278313   -0.71792496951002    1.17936967526925
H          -2.44045181374106   -1.45589747506369    1.65441034523268
O          -0.60210443474990    2.53609438920657    0.75498449673914
H          -1.17194434934108    2.20842770344760    0.04705856573313
H           0.25535106039569    2.09675107402492    0.60540664607663
O          -2.07024297579414    0.82753047559031   -1.08570602269195
H          -2.96224149710820    1.07131025526122   -1.33692247137548
H          -2.14563670476517    0.22964367666912   -0.32130689609507
O           0.50792846000417    0.60486441785204   -2.18345393463812
H          -0.44631283492957    0.60504260706384   -2.01219492457283
H           0.90331509810133    0.86523173337719   -1.31502943500702
O          -0.95577166181386    0.86652493908641    2.82662301004572
H          -0.08126830782215    0.42608056973410    2.80958235909356
H          -0.86117410205765    1.66038629912459    2.25528638706689
H          -1.71220188650616   -0.06903943694351    1.89380952300685
N           1.88539393222695   -1.59669175051374   -2.04976665678688
H           2.63150954251660   -1.65412736873431   -2.73566880950549
H           1.25942897936703   -0.73075254153363   -2.21631831637345
H           1.31734698639008   -2.43821082303136   -2.05176942239793
