    26
        -50.47176455  Gyration_radius:  2.45094578755 Dipole_moment: 4.283
 S          -0.37720500295987   -1.20662561262081    0.81670669473973
O          -0.92013021346776   -1.46164628928811   -0.50681039173298
O          -1.16488635324762   -0.27088940892247    1.58267325422639
O           1.02527725510674   -0.74850906158302    0.72282162998120
O          -0.35178710450782   -2.58314799404015    1.54930907153429
H           0.17528543543430   -2.41132605213074    2.35293929692631
H           0.66813441319366    0.93784472297992    0.76824857208579
O           0.44772657824629    1.88655885716096    0.72950034854489
H          -0.17600431350491    2.00880802297476    1.45025065097562
O           1.52232780539206   -1.63146373378761    3.16327035474852
H           1.54575201473292   -1.12336667878378    2.33030735529718
H           2.34777788092449   -2.11869712916744    3.21451458209260
O          -2.90601536926297    0.58243677822248   -0.22925385508394
H          -2.36359006119280    0.34422621462180    0.55083460129335
H          -2.99220967050393   -0.24186566731924   -0.71416296274400
O           2.43039316108843    0.34719284388985   -1.27175440335175
H           2.51533136411915    1.24186886515427   -0.93058137434862
H           2.07418145977480   -0.17745444330822   -0.52661376992414
O          -1.14504197343059    2.17069781975566   -1.44646820535539
H          -0.47685995991336    1.00350427468873   -2.16094040794615
H          -1.93921458576321    1.73900022275751   -1.05312391986067
H          -0.53658803060393    2.29104734181461   -0.68845895962925
N           0.02806066140744    0.07655448777110   -2.41100651816924
H          -0.35623660421408   -0.63984725594149   -1.73506395415185
H           1.04590259001175    0.18868574680134   -2.18366545380115
H          -0.12038138686229   -0.20358687170152   -3.37347224634009
