    26
        -50.46926240  Gyration_radius:  2.54882859815 Dipole_moment: 4.563
 S          -0.07049073013708    0.19093944172106   -0.52347383939361
O          -1.23031648522164    0.35286803637054    0.49822655499732
O          -0.47441417119442   -0.92116076766556   -1.37453475014787
O           0.12455962985090    1.43255848473131   -1.22848371223611
O           1.12323124368576   -0.18242684385512    0.26389098497919
O           1.19643729795210   -2.92262611158083   -1.88494731771234
H           0.52365199305992   -2.20601634145566   -1.87222829922728
H           1.94437876185819   -2.57466198907398   -2.37290180000910
O           1.77991493645215    2.32629767659816    0.90112297516906
H           1.69830914910271    2.75152679130510    0.04240379523992
H           1.69138446680323    1.37316304741019    0.71587436278900
O          -1.78467295910881   -2.35439228110388    0.41798626466400
H          -1.49124475598228   -1.88071918400331   -0.39088124262199
H          -2.17416235803557   -1.66550613542666    0.96447597650299
O          -1.29384689507069    3.62496675952266   -0.72596833548353
H          -2.11588381731280    3.56772220390699   -1.21461418557713
H          -0.74441172281944    2.87107810260537   -1.02705021820142
O          -0.76465742190467    2.53030695869504    1.67674239012679
H          -1.07828550085414    3.14404590432891    0.98236935106474
H          -1.07135446591722    1.22262026061666    1.02786800014583
H           0.21767329047928    2.56431749715678    1.61294785917210
N           0.81515705206132   -2.68077969094733    0.73679803916511
H           1.10257678035741   -3.06295784226276   -0.19325690738771
H           1.02799248346930   -1.62588255160917    0.66282272061770
H          -0.23798360737577   -2.74524801440921    0.79104783786072
H           1.28645778581507   -3.13003338159714    1.51376347549477
