    26
        -50.46575946  Gyration_radius:  2.39058438992 Dipole_moment: 5.482
 S           1.35364259208253   -0.15142136601777    0.77069516100654
O           1.25192841355626   -0.03796453695590    2.19553935513026
O           0.65234186891315    0.92330365609202    0.04989946733231
O           0.61852110246248   -1.48280108665739    0.32242786118806
O           2.70092063994761   -0.30868300289838    0.23654966636765
H           2.45151009045088   -0.03260374827290   -1.15865277539230
H          -0.31076388431236   -1.43607281849547    0.67713728284020
O          -1.83406429568369   -1.25551497689126    1.16735418647435
H          -2.15276269568097   -2.03065386897498    1.63254535012827
O          -1.20757767466307    2.56441866346046    1.10221269625690
H          -1.87147110145390    2.51233066557915    0.41099902319455
H          -0.42234758570256    2.09861072614394    0.75738898765876
O           0.17021552271110   -1.55419769457417   -2.43784082769672
H          -0.59847955128064   -0.98046229041906   -2.19088814122560
H           0.36409819175674   -2.05019572775744   -1.63138609250257
O          -1.50950558778810    0.12338942466511   -1.26434098281632
H          -1.98827918361362   -0.37249748557673   -0.58803727173397
H          -0.74146181099169    0.50713327484112   -0.79006231689714
O          -1.25332219576091    0.53311139061570    2.90117880107518
H          -1.36811229647933    1.39818729153921    2.46145444790377
H          -1.70426154522881   -0.54131550887754    1.87851895461028
H          -0.28965844945764    0.36499630192335    2.86723205624289
N           2.04676763748898    0.24605377261648   -2.14472169923205
H           1.32719685300665   -0.51124988248028   -2.40545499008061
H           2.76937058816766    0.35670263408816   -2.84892232142650
H           1.54555438761019    1.11739620336969   -1.97082589841693
