    26
        -50.46044986  Gyration_radius:  2.45525631501 Dipole_moment: 6.758
 S           0.93036205204766    0.84858953756003   -0.92493705565511
O           1.18832141343139    2.09160224804927   -0.25728164233093
O          -0.49561066120521    0.58298975974798   -1.11648767944252
O           1.47065172261681   -0.33836844277089   -0.02964040124750
O           1.67352726186213    0.66478178442436   -2.17381834379411
H           1.60156744200390   -0.72887304407008   -2.34850907571041
H           0.77476620941155   -0.65974690376443    0.60619802277696
O          -0.31506279533441   -1.42420804112775    1.51587940530635
H           0.12263260678131   -1.77352396990939    2.29397023547521
O           0.74327861428521    2.06620686182369    2.34531500565433
H           0.67272043043920    2.99039441888089    2.59048256845168
H           0.95434163295886    2.06770827799978    1.38524806300798
O          -0.83203337761132   -1.98348339260785   -1.15947155850178
H          -0.89856675017813   -0.99868302864985   -1.22250528539005
H          -0.78163002836100   -2.14022160223509   -0.20466130714374
O          -2.47386152230044    1.80599189057699    0.17035258852633
H          -3.25438178704782    1.52455182526869   -0.30921829648595
H          -1.70742623847423    1.47407416517849   -0.34127513892894
O          -1.53256121558524    0.63461239322895    2.41141506355507
H          -0.73109614428800    1.18558536150888    2.54030827212479
H          -2.01589153523891    1.07598218965461    1.68405007275952
H          -0.87916729505099   -0.64821554518741    1.85754549971018
N           1.48913326936883   -1.84340410982571   -2.35127948884004
H           2.24017839903495   -2.22846525378530   -1.78647227227213
H           1.51656969858677   -2.21230116672916   -3.29656591687584
H           0.53923856785521   -2.03357618327237   -1.87864133471869
