    26
        -50.47064475  Gyration_radius:  2.4855746745 Dipole_moment: 4.192
 S          -0.13048422786872    1.02659766238770    0.69480980435020
O          -1.21091893066478    0.63218332703003   -0.21314436916451
O           0.97983756551722    1.58986436538406   -0.06169340028884
O           0.29505663133388   -0.10569329233485    1.51472996594887
O          -0.66232908738205    2.13474735289805    1.62853111429169
H          -1.12649719994845    1.62277033857993    2.35346328814079
H           0.80566741773981   -1.29740344065499    0.59275106848302
O           1.13943435572789   -2.00752162311871   -0.01854519536695
H           1.18066256657618   -2.80852281271923    0.50660532181926
O          -3.25720581166748   -0.28379276193268    1.18112816148152
H          -4.03085126418014    0.21162550057878    0.90789576116743
H          -2.52405087451905    0.01051238169513    0.59639680126374
O          -1.69219608737853    0.42739680906199    3.23924252049069
H          -2.42739557098038    0.09188422823318    2.68435119112664
H          -0.92190393305626   -0.10041640074489    2.97968771641863
O          -0.51650974499437   -1.14881992955628   -2.04031494467589
H           0.00202201324625   -1.73213148106203   -1.46023477136759
H          -0.97114164190671   -0.53900981917734   -1.41846504301062
O           3.12789811750930   -0.30751426294265   -0.83328400354874
H           2.59881455276969   -1.07437040804827   -0.54663055174774
H           2.20510129015735    0.22316481033591   -2.16487228144449
H           2.86254423095756    0.40880590514786   -0.24287380858213
N           1.30024125594268    0.66480078326481   -2.46115584275703
H           1.04976308845865    1.23937335680441   -1.60334285125612
H           0.54977477723287   -0.09946406482673   -2.51049669228414
H           1.37466651071188    1.22093349568604   -3.30453895902017
