    26
        -50.45514527  Gyration_radius:  2.45850521697 Dipole_moment: 1.640
 S           1.02340748475498   -0.88043005762562    0.63354119668680
O           1.13732786401498   -0.88100614697429    2.06201938081559
O           1.30776545646561    0.40393319007965    0.02310688803942
O          -0.40315143415022   -1.30363301788128    0.22542676804300
O           1.89374613857034   -1.94741988158674    0.01882677155833
H           1.92951566385837   -1.71260045400834   -1.01414304779720
H          -1.09830080078688   -0.64373993090658    0.61478196077272
O          -1.95668371592752    0.39274275686642    1.25450216558527
H          -1.81816576593625    0.29123207777526    2.21000298829151
O          -0.46052373243836    0.63777450377710    3.53785413773257
H          -0.37476554754148    0.43351201576313    4.47018718614801
H           0.18793357440481    0.06779392912137    3.07403850924148
O           1.85424645214576   -1.20046685331499   -2.34438888589688
H           2.02903264322887   -0.26112398306072   -2.23033107359477
H           0.86638714075084   -1.26807836799776   -2.59726637039995
O          -0.44541574257310    1.49271397623059   -1.77448738089643
H           0.23123956290920    1.12206094466849   -1.18511945504164
H          -0.78350062152564    2.26814097489193   -1.32143469391907
O          -0.16548300715868    2.34883157175171    1.21504376073978
H          -0.08815561552646    2.25248377337393    2.17138641311966
H           0.53687501325267    1.79431436807929    0.83262280665374
H          -1.49231846781853    1.23879214523905    1.05098215194910
N          -0.71629630274252   -1.20930656596811   -2.75818350568818
H          -0.90379963910369   -0.21487850465298   -2.65155392115074
H          -1.08863468222605   -1.67496807124963   -1.93922635941062
H          -1.20228191888055   -1.54667441236760   -3.57818841158508
