    26
        -50.45467071  Gyration_radius:  2.45119334845 Dipole_moment: 2.768
 S           1.04955470111305    0.31590877500074    0.95805314068537
O           1.22118437823336   -0.49487922096157    2.12180260432857
O          -0.28218442973324    0.87485157573414    0.81125826259108
O           1.36618722922085   -0.51488281098179   -0.31303643134226
O           2.07419851220070    1.42117864752389    0.89705171257698
H           1.69122409020592    2.11213498740166    0.18476948912472
H           0.69644138670330   -1.26584335440421   -0.41012456138711
O          -0.35516378921488   -2.41096365109722   -0.42580685304567
H           0.03384863061207   -3.25131533702682   -0.67662749627765
O          -2.18780284962329   -0.19679166145337    2.42378388759484
H          -1.57577756858265    0.27069680948525    1.82737239003732
H          -2.12512430669994    0.24208243794283    3.27377743736601
O          -1.46022206957535    0.00871890467409   -1.51899176738440
H          -1.20850036046054    0.40056680565436   -0.66886909266032
H          -1.42971119003484   -0.94308362702413   -1.37648798114513
O           0.95646201662674    2.88037208435046   -0.76055242564603
H           0.06689085463443    2.81216470843595   -0.39813353426168
H           0.94880790360532    2.30607890332698   -1.60785039897860
O          -0.68355694809833   -2.41286988913575    2.12016062284307
H          -0.57405719162412   -2.48798184852536    0.55938043450073
H           0.10843974245434   -1.88821881372850    2.33198105851073
H          -1.42825944429032   -1.80421850983181    2.30023306108384
N           0.81638157423894    1.22188245464657   -2.75927460334614
H           0.81275684997120    1.49948816461674   -3.73174049486580
H          -0.07633386003128    0.77207543384040   -2.54321249305521
H           1.54431614825914    0.53284805148651   -2.61891599779637
