    26
        -50.45467079  Gyration_radius:  2.45132772977 Dipole_moment: 2.767
 S          -0.57716037784499    1.20602432311788    0.57437687595095
O          -0.87834375686675    1.25754270679709    1.97003933946326
O          -1.21398672282056    0.11001242013832   -0.13301521556321
O           0.95577277720761    1.08509903256771    0.37112717761713
O          -0.90190098179439    2.51027111839650   -0.11050057760263
H          -0.91980418829903    2.27873039832490   -1.14823464373418
H           1.28515113302972    0.20681901300821    0.74844593760270
O           1.68152970189029   -1.14379209698653    1.40771521364000
H           2.49709885614713   -1.07203921670175    1.90786276281099
O          -0.92095757597133    1.71086020535243   -2.45329612269650
H           0.04714435065179    1.41703078200918   -2.60710180738127
H          -1.41279732689819    0.89773638009975   -2.29756868157232
O          -2.30971801314507   -1.81691503604941    1.43750005808233
H          -3.17898914669292   -1.51146012257677    1.70194387628858
H          -1.97596857138041   -1.16949376853406    0.79076838553520
O           0.66370043978445   -1.56198646810936   -1.24970969958420
H           1.15219189770614   -1.81415958597371   -0.45915050171047
H          -0.12164335431333   -1.09595716739685   -0.92464504621800
O          -0.27504144308586   -1.13693460783554    3.06919839290884
H           0.94337413469154   -1.25141099932701    2.09198415883398
H          -0.51273621888942   -0.20031874266756    2.95212256514550
H          -1.00426375935431   -1.62408949653288    2.63507362299895
N           1.51263086126569    0.80631125483117   -2.61507562795586
H           1.36074462628673   -0.14789741314841   -2.27975347725335
H           2.05246825853026    1.29212816898893   -1.91011512298869
H           2.05150442016036    0.76788890829123   -3.46999183258914
