    26
        -50.45652641  Gyration_radius:  2.52096714397 Dipole_moment: 7.726
 S          -1.20061991286502    0.78102878730389   -0.07388385920268
O           0.21922396649768    0.67756031233100   -0.41910087655780
O          -1.42151091431224    1.27997969593212    1.25019355270956
O          -1.76968520536895   -0.69493875247495   -0.18515852465150
O          -1.94018331951212    1.46827346907953   -1.13581901842388
H          -1.83355161204066    0.53145096886294   -2.18419154703802
H          -1.11159645116483   -1.33147550636749    0.20097553477048
O           0.05977497176297   -2.31125140944605    0.72619149701885
H          -0.28380094149078   -3.06011124970529    1.21736360342580
O           0.51485315360504   -1.35850302418462   -1.97317881170951
H           0.60126569463744   -0.54891145885462   -1.41021419934659
H           0.46513993858575   -2.07145749528145   -1.32487509691465
O           2.22570019739222    2.20844129834386    0.41478441088382
H           1.42750724908860    1.72037138254735    0.12453756119744
H           2.93648376774726    1.90944465546473   -0.15540295366774
O           2.31465284431309    1.18328386016136    2.90122867545396
H           2.35240976124970    1.59474705580075    2.01006984837414
H           1.97902801917372    1.86349786367533    3.48766915720539
O           0.20994587065959   -0.45923615116187    2.49449527677180
H          -0.41685858932086    0.21149997272670    2.16456164635305
H           0.28513244292076   -1.62200660714038    1.42574544063070
H           1.04247022894942    0.02845158869960    2.67679481109123
N          -1.70558716560466   -0.30630560750896   -2.91911260405608
H          -0.82133400727360   -0.83021361435909   -2.61336275038874
H          -1.61440974166926    0.05112845201836   -3.86510542602838
H          -2.51445024593365   -0.91474849655488   -2.83520533793209
