    26
        -50.44460311  Gyration_radius:  2.78485390238 Dipole_moment: 7.131
 S          -1.75552945682017   -0.00227263000531   -0.76077178931634
O          -1.62661424385762    0.06319448277692    0.67559171207799
O          -1.19499673611431   -1.15399598099099   -1.38714012383007
O          -1.11288200781630    1.28627121312328   -1.35496098578777
O          -3.22174024794484    0.17255353309842   -1.15282746598177
H          -3.56781510886724    0.91982818222596   -0.52996267177201
H          -0.10571191748566    1.19720703678390   -1.35264594393836
O           1.42064223816920    0.93085132352642   -1.28919276119099
H           1.92365450664083    1.46133077805417   -1.90993748279839
O           2.07181870636396   -2.41990065062561    0.42853114990408
H           2.93862784861818   -2.19615761870175    0.79154517509030
H           1.47124757543585   -1.77161488547844    0.83314543024206
O           0.99591037634080   -0.00253336096954    1.32398716259745
H           1.29588828553234    0.47562511531296    0.53824666408595
H           0.02553139413484   -0.02393542326970    1.25771324111500
O           3.56914433386573   -0.79489318338197    2.21636029065679
H           3.60235828688201   -1.00097788210460    3.15138769640566
H           2.71009841690878   -0.37639875839564    2.05966775511403
O           1.44243115731970   -1.51124759378058   -2.00260974556892
H           0.47928084837059   -1.62868911175314   -1.97948456073963
H           1.50128317360811   -0.04048913313335   -1.61132859710184
H           1.77159738712475   -1.98834265799525   -1.20489603744739
N          -3.69890564680512    1.96247801543473    0.60485028547442
H          -2.95436909695570    1.54340286995273    1.15555489365747
H          -4.54841258623354    1.99564901368457    1.15222493449982
H          -3.43253748636278    2.90305729660484    0.34695176456137
