    26
        -50.45154306  Gyration_radius:  2.59994196745 Dipole_moment: 6.024
 S          -0.20989487099174    0.90755990891049   -0.17151194294775
O           0.84607952234317    1.16495814696787    0.83118493640040
O          -1.51968870092393    0.92296436598661    0.43788605734809
O           0.04948825451243   -0.36104553381183   -0.85804020265717
O          -0.14951028382397    2.04407453306405   -1.20380746010848
H           0.79245664874645    2.08590202198906   -1.54489638345281
H          -0.00853343862496   -1.51001322577108    0.21911859074652
O          -0.01637065009100   -2.15496003439938    0.98224851515289
H           0.67773314200285   -2.79247236904067    0.80620230192793
O          -2.05903142896467    0.47913266732920    3.06416303859478
H          -2.52947289074657   -0.30487197063833    2.70363840688649
H          -2.05148168109084    1.09043888228860    2.30969395942104
O          -2.74737087255776   -1.38369409110527    1.27758248506067
H          -2.02091879361220   -2.00894944405019    1.17950621768830
H          -2.50331836020354   -0.61815264210206    0.72997667254661
O           2.17646158736666    2.08253059997638   -2.30877857069614
H           2.14242594045212    1.15859848448362   -2.68319500559605
H           2.11744323808310    2.68750477851437   -3.05129624021458
O           0.32708474025003   -0.26290064434908    2.73632097246902
H           0.63271433379621    0.45048397351792    1.92476721966315
H          -0.63793879131127    0.05127001380780    3.00717467079464
H           0.20985741418005   -1.11617765028308    2.22434595780947
N           1.73337137932937   -0.40210698837130   -3.15365373387589
H           1.21915684095432   -0.57026294131297   -4.00927020214750
H           1.08338891840824   -0.52330400484222   -2.37410880002671
H           2.44586880251077   -1.11650682675756   -3.07525146078814
