    26
        -50.45875105  Gyration_radius:  2.5212307487 Dipole_moment: 10.923
 S           0.69788843179021    0.61920267426712   -0.59870927104597
O           0.18829273833908    1.25202348587359    0.61710029202835
O          -0.22190014865229    0.68996449874132   -1.69791190613013
O           0.93618737532446   -0.89597348388857   -0.22313090603279
O           2.05005995193200    1.09005033237579   -0.91386824947666
H           2.84662952421019    0.46450296690970    0.03205819666367
H           0.03728814007464   -1.30813111856924   -0.07033611135045
O          -1.41018471730112   -1.85374202757148    0.26941213443096
H          -1.45742321209648   -2.38151662404242    1.06818198543206
O           1.65634003166553    0.80425937460771    2.69107830783580
H           1.00429955813141    0.96841263401373    1.95592680427538
H           1.72120177185862    1.63447640845575    3.16666709294659
O          -1.89744914813358   -1.37743719341573   -2.50944054188165
H          -1.18546808806240   -0.72333891867518   -2.44302712133255
H          -1.88008667124071   -1.85364240881236   -1.67193802520299
O          -2.98377142332488    1.08645150935510   -1.77555913531495
H          -2.06024808269173    1.34252633707791   -1.90721400055410
H          -3.03602079862925    0.20576158429202   -2.18185750401974
O          -2.38319310131848    0.46063554515275    0.75153050599668
H          -2.78646769944789    0.75451311082578   -0.09960778449682
H          -1.89036899064211   -0.98219483924394    0.47904059895524
H          -1.52157016474198    0.91335338714116    0.79316254530987
N           3.32886777129358   -0.10505549747217    0.87823412540716
H           3.10557876759222   -1.08394911925782    0.71540274296474
H           2.81110709515068    0.23177387922852    1.73930896959881
H           4.33041111890697    0.04707350262749    0.93549623499166
