    26
        -50.45875081  Gyration_radius:  2.5202408293 Dipole_moment: 10.936
 S           0.19451037297167    0.59394967363678   -0.91807975303682
O           0.59676199695050    1.23359499525083    0.33384928702025
O          -1.20707064248140    0.73012316298103   -1.19423655153784
O           0.53924355119019   -0.93714491487800   -0.74509496831472
O           1.06789504182482    0.99830670443891   -2.02404665681755
H           2.24878504316717    0.31645824205200   -1.77978242870154
H          -0.08025621043017   -1.30391545344198   -0.05019803733420
O          -1.01365293233619   -1.77727361594783    1.13876113508946
H          -0.57254241950058   -2.31310723474788    1.79986120117207
O           3.01231910318777    0.65660412770968    1.03221472371811
H           3.40736582255916    1.46885809555435    1.35436778384253
H           2.05420247616373    0.87365804565104    0.86636942527036
O          -3.11757640302294   -1.23757928675418   -0.72335912281636
H          -2.49229534391412   -0.62197375884535   -1.13459737727479
H          -2.59970271645168   -1.72473735961224   -0.07310222295335
O          -3.37570031018393    1.27018564980698    0.47662494012750
H          -3.71746891450205    0.39994937078010    0.21355284229974
H          -2.72923287152329    1.47771521050072   -0.21257822448396
O          -1.35042715574953    0.57745645281402    2.07580064638876
H          -0.63392060255866    0.98392042006818    1.55566532780148
H          -2.18433141935334    0.90421500719766    1.66201482818760
H          -1.21077883923281   -0.88512065651353    1.58508341471071
N           3.12749029821806   -0.29190520014903   -1.41725647680768
H           3.28223757980773    0.04997789104242   -0.42637931434064
H           3.94873774928557   -0.18588931725862   -2.00365779319058
H           2.80540774591256   -1.25632624135983   -1.39179663803840
