    26
        -50.44869890  Gyration_radius:  2.57450196934 Dipole_moment: 5.945
 S           1.21381056828079    0.52402263178500   -0.41321827020578
O           1.96480364499569    0.42923829677199    0.83627311236537
O          -0.07774808342373    1.14652188815839   -0.21355542550319
O           1.06428202680645   -0.79951848238760   -1.03011362105221
O           2.01806353105946    1.42231457237294   -1.40341848056542
H           2.87264176587829    0.94023900711347   -1.48506868108335
H          -0.34466125075497   -1.24615188096576   -0.72096708111078
O          -1.24926802293080   -1.61668710413100   -0.44773195252962
H          -1.13385972539098   -2.56826358229821   -0.41354258029940
O           0.23896139601270    0.44393574774566    2.73650685122745
H           0.63208047427921   -0.15926789407565    3.37036876264301
H           0.90433739511723    0.53765880730664    1.99635262367138
O          -3.23113694455245   -0.04551966727285   -1.61047660214245
H          -2.45616947083525   -0.59236013531789   -1.39809679449718
H          -4.00025206057271   -0.61417223400059   -1.54873463142199
O          -2.54777476778034    1.75013681516440    0.26192231487308
H          -1.60458739754001    1.86608232650548    0.01624860356767
H          -2.94301865449512    1.29714721460133   -0.51510403888503
O          -1.94865480356252   -0.21722729719370    1.63132461244845
H          -1.08378314729012    0.07183473960195    2.11379890125187
H          -2.29555086117708    0.70150683130001    1.11242450212148
H          -1.65990151640116   -0.80552541100362    0.86496042599387
N           3.89437745757894   -0.38737161518490   -1.07837646425711
H           3.20884436070936   -1.07967437072764   -1.36129528285937
H           3.74134210946570   -0.23070831927498   -0.08690873121112
H           4.82282198653886   -0.76819087460829   -1.21357208255757
