    26
        -50.47136199  Gyration_radius:  2.44334028554 Dipole_moment: 2.090
 S          -2.02234219270494   -0.42391737992112   -0.20493965789339
O          -1.76158872177510   -0.05180878844418    1.15736126764807
O          -1.34007489424994   -1.65669423171894   -0.60045362510160
O          -1.75822513276826    0.64279182784502   -1.16344459120799
O          -3.56950647258097   -0.73835873582633   -0.31756594510278
H          -3.63342909033963   -1.00818062731079   -1.22678926887547
H          -0.70120939980665    1.75155085157848   -0.67530312891152
O          -0.01992818044972    2.42635536878043   -0.41646670151215
H          -0.34086666827179    3.26449191429231   -0.75224069431157
O           0.34999051047864   -0.69570683945367   -2.39507831087811
H          -0.21330957529407    0.01992606814354   -2.70479978639862
H          -0.21901645780881   -1.17261641589525   -1.75673813166974
O           0.10522792284867    1.50917663263684    2.17252871463318
H           0.13697362172391    2.08240819523991    1.38724195166877
H          -0.68555226441091    0.95326396804299    2.01435788593461
O           0.54224563674032   -2.55689922551261    0.97637061692281
H          -0.25447302882246   -2.22746557415115    0.49700691746909
H           0.93273911744069   -3.21357280873369    0.39596622595026
O           2.09339283447832    0.75172204818675   -0.98272120247638
H           2.09070760557103    0.09597954459313    0.44139482168778
H           1.59329329444596    0.14549789594165   -1.57712599987436
H           1.49750151064957    1.50953650766957   -0.85282380709868
N           1.87607135564970   -0.27421688454942    1.42095118561314
H           1.19911074520321    0.43075671994228    1.85857227632612
H           2.71792968827275   -0.36689844986201    1.97756533400339
H           1.38433823577189   -1.19712160152945    1.32717364329363
