    26
        -50.45697767  Gyration_radius:  2.52674459751 Dipole_moment: 3.267
 S           0.55726676107155   -0.16168776843492    0.96636409632331
O          -0.34633250542563   -1.20132486649811    1.46284036827871
O          -0.18069262046048    1.07040818659199    0.70426074731039
O           1.25307441198404   -0.61178060900748   -0.24087675190079
O           1.59955844413113    0.09554647610157    2.06642221862296
H           2.39145891043906    0.47059503593848    1.56711812210338
H           0.16473800489902   -1.00864662792091   -1.29380554750416
O          -0.56526303914281   -1.23930931102722   -1.93674168755396
H          -0.13868431553347   -1.37570678502500   -2.78452304675949
O          -2.74806843233829   -1.18563105965088    0.88959796044090
H          -2.63399780230160   -2.04048920541668    0.33973273222466
H          -1.78341601453745   -1.12266180264238    1.30866422997054
O          -1.83394297020539   -3.12373960703537   -0.48638216611304
H          -1.14677332496403   -3.38257146394427    0.13498852796521
H          -1.39099153290583   -2.54713212558343   -1.14501046281153
O           3.33146211038046    0.98149327183837    0.42200439712867
H           2.92047681094834    1.86404291567083    0.23666719619306
H           2.90426084003843    0.36243928989853   -0.18760429649726
O          -2.24987688747122    0.58995147114969   -0.78987622403035
H          -1.50934296709842    0.95965052418841   -0.24481039707359
H          -1.80629154191101    0.05031251697988   -1.46728463898409
H          -2.71950863841361   -0.39216208828928    0.18204489199284
N           1.72063526858518    3.09645142766132    0.06154714800210
H           0.93350209596889    2.48839018678110    0.29416114202940
H           1.51640496597356    3.54064508134976   -0.82484050479055
H           1.76034396830132    3.82291692633149    0.76534197542562
