    26
        -50.46327888  Gyration_radius:  2.36777596565 Dipole_moment: 4.809
 S           0.78127712281365    1.17934400236409   -0.35578911236085
O          -0.02895148327702    0.64623467544079   -1.45489973733483
O           2.20294651123256    1.03040647163082   -0.63380757054018
O           0.42230851408288    0.50210174190346    0.89864949219436
O           0.46324130365357    2.66860732346083   -0.19076438624582
H          -0.47057024543601    2.65224236628443    0.24420411824727
H          -0.52411999509272   -0.88102777130619    0.74514949794881
O          -0.97580749883791   -1.72483840257619    0.52781206910540
H          -1.82057936857592   -1.44045551711481    0.15664192115394
O          -2.54147860399846    0.17391187493180   -0.88053063051355
H          -3.04355330324293    0.17318754990322   -1.69695227479750
H          -1.60671733981855    0.35990224672736   -1.14037592267616
O           2.78232006709640   -1.38839878322779   -0.50714797433685
H           2.56007403062910   -1.55392949038602    0.48088392103375
H           2.69384375695547   -0.35072627336986   -0.60301075255513
O           1.82802597508332   -1.51160489087176    1.84964204560094
H           1.12585603224201   -2.16561384885454    1.92077673902813
H           1.37075878307811   -0.65477509984863    1.68611930280032
O           0.60229864407901   -1.89862990170635   -1.59621718097340
H           0.37650914430469   -0.96352973094726   -1.80479263290151
H           1.92171354707678   -1.73342655012909   -1.04527954146148
H          -0.00325464122037   -2.10887732516562   -0.84366280688204
N          -1.82073850869180    2.34336065704102    0.93352555864470
H          -2.31658010747656    1.66223558787294    0.36091972115759
H          -2.44564008749655    3.10483331857444    1.16318893452228
H          -1.53318224912487    1.87946573940868    1.78571721215739
