    26
        -50.44964816  Gyration_radius:  2.6691506129 Dipole_moment: 4.488
 S           0.95064088654692   -0.58254094770970    0.94186693532989
O          -0.45208009707374   -0.24127052915625    0.89992151702148
O           1.82545543928412    0.49225422810453    1.28176507985426
O           1.34576703595786   -1.18308659019384   -0.43133137911800
O           1.17284725486948   -1.75594286265744    1.88855112167977
H           0.57361085285617   -2.53116701101000    1.60188239153738
H           1.33207012086359   -0.45230441631256   -1.12532854101614
O           1.32921654420869    0.75741334648806   -2.10483253786982
H           1.99055419545674    0.63001248343937   -2.78766662908350
O          -0.27995504588628    3.75548366945811   -0.26277374871902
H          -0.76340900780547    2.93723144637017   -0.51651390614561
H          -0.55840656696608    4.43633933335243   -0.87669337955795
O          -1.24522153471380    1.38949284453823   -1.10597908604116
H          -1.07539372540833    0.83752402352857   -0.32199675841604
H          -0.54820629386839    1.15937813744264   -1.73292668619746
O          -0.40772379321129   -3.64882829437696    1.27684826192722
H          -1.24920781323100   -3.17755445607987    0.99176794909871
H          -0.61161600319219   -4.11337125935704    2.09164524381202
O           2.11771946060949    2.54554067451773   -0.46612751346496
H           2.17117526564764    1.96384137845814    0.31161404487668
H           1.67358525298820    1.51680683969534   -1.51305776807130
H           1.33206921615263    3.11468602266067   -0.31265009210306
N          -2.51098180764198   -2.18770903760925    0.63175362207246
H          -1.95301964634748   -1.33935271077680    0.73228717371366
H          -3.32049954933299   -2.09898830070436    1.23305891154665
H          -2.83899066085117   -2.22388800201913   -0.32508421662836
