    26
        -50.47472221  Gyration_radius:  2.50580519499 Dipole_moment: 3.307
 S          -1.04530814693169   -0.42891805589015   -0.04734094128493
O          -0.38012694276896   -1.27861084567859   -1.02315566406983
O          -0.35724645001406   -0.48827038658108    1.24161075275780
O          -1.13035079338158    0.95714250669539   -0.52104558942668
O          -2.47916904830616   -0.96522091608996    0.13824856937859
O           2.21046713913786    0.07804725840889    0.87045069526853
H           2.45253008272691   -0.76564632525777    0.44306820793035
H           1.30452173781107   -0.08751060654381    1.20895622594024
O           2.04657715017798   -2.23111507961766   -0.54668890636030
H           1.10825294501790   -1.96456839868173   -0.67633081008338
H           2.02115510157475   -3.06828773888565   -0.08164119126238
O          -1.62945665369109    0.99268834811828    3.02224640051914
H          -1.07630921757599    0.45766264561170    2.41163147131080
H          -1.79371731207560    0.43950579953955    3.78766571024047
O           1.39908934659163   -0.59178158031138   -2.91847507044937
H           0.58245190536617   -0.89493633168342   -2.47573397498920
H           2.07226811912969   -1.21977633362350   -2.63473724738780
O          -3.34314737388208    1.28798425948953    0.98677172508532
H          -2.70920768322821    1.65532823913265    0.35379355950615
H          -2.98343749234645   -0.17205260919531    0.49215231820083
H          -2.88747762445297    1.33015084951767    1.85476389383511
N           1.34206922314270    1.42597746539426   -1.19048389340101
H           1.64135720215114    2.37355791230113   -1.39169113370674
H           1.49135696548538    0.77293963088567   -2.00487852926543
H           1.83745187914696    1.00691067040009   -0.33694100458429
H           0.30540595120868    1.37879964255534   -0.96221556370255
