    26
        -50.46215562  Gyration_radius:  2.39729188077 Dipole_moment: 4.881
 S           0.85461054457354    1.28711583612542   -0.49593325043252
O           0.35360874823790    1.07167545108545    0.88507156716616
O           0.02309193164305    2.23083270043671   -1.19792750818230
O           0.93506718206258   -0.00703987750211   -1.17298718431333
O           2.28141275566594    1.85580975937771   -0.36389350315890
H           2.79745428014840    1.06902961728321   -0.00759515985185
H          -0.43917236885988   -0.65507064708649   -1.59292584739232
O          -1.33464507300047   -1.04289600255773   -1.80044635871782
H          -1.21899106507589   -1.56501830129885   -2.59536066354335
O           0.58781614756341   -1.33281840851397    1.89017219610903
H           0.48159863700400   -1.20206755675489    2.83456490752713
H           0.60161380295396   -0.42955164605828    1.49167104412724
O          -1.85556430248458   -1.64603412831248    0.79743578147859
H          -0.95705181002403   -1.74617945793404    1.18390302033470
H          -1.73499585581213   -1.65006417186654   -0.17126704514899
O          -2.13967322827069    0.83844682768625    1.06367624125059
H          -1.13004244053162    1.05668087900720    1.08202052398865
H          -2.15204207171876   -0.21518587240948    1.03761001873208
O          -2.45620337675143    1.40542413902113   -1.34583938863916
H          -2.42754381224522    1.14228879208663    0.08627056496626
H          -1.59822423959266    1.88785757175888   -1.42446285157655
H          -2.28264092859086    0.52570161153113   -1.72791771868908
N           3.21165089476534   -0.45215944627955    0.38227738751301
H           2.50662513070221   -0.80265873266306   -0.26177592259455
H           2.97865947614776   -0.79708517539224    1.30502137083503
H           4.11358100149048   -0.82703373077223    0.11863777824125
