    26
        -50.46812619  Gyration_radius:  2.51054939026 Dipole_moment: 7.103
 S           0.57731209979424    0.18915326724714   -1.02355163261839
O          -0.87716960377083    0.35562980028329   -0.93821902194210
O           1.25977699589736    1.24495291356673   -0.29295144862646
O           0.96689121853381   -1.13862151230251   -0.56022690492581
O           0.98128149362652    0.32708874623612   -2.51290221793498
O          -2.16057138546801   -1.16586617680878   -2.68061565968228
H          -2.45488735831228   -0.58690641836642   -3.38581505407798
H          -1.76419299788466   -0.58179602406774   -1.99716374775673
O           2.24783001095970   -0.44861613780261    1.57984314971259
H           2.50590808042403    0.37548673315860    1.14692445695728
H           1.82092599853956   -0.93690459676581    0.83426487772840
O           0.13049618470335    2.72571870298866    1.52387219741690
H           0.68801686013669    3.50292446071231    1.58673469033660
H           0.46191363393343    2.22339319572115    0.73620917708975
O          -1.82505191192419   -0.59248171574082    1.29047517676221
H          -2.72554598829618   -0.26220156051221    1.29813774934204
H          -1.44808295358685   -0.30608056139226    0.41943749746652
O           0.34442792463122   -2.11407884809715   -2.98130024283506
H           0.59331802755043   -2.22543175815189   -2.05000690890629
H          -0.63003045060694   -2.01336750016468   -2.98482679865603
H           0.80514596051471   -0.58747137287131   -2.88038636940526
N           0.09644219402704    0.40159059595185    2.81177982053583
H           0.99994221754170   -0.02344956741427    2.41524235536351
H           0.08518504071420    1.40698111220285    2.51120603832824
H          -0.71376051736606   -0.06432631881592    2.31597906171846
H           0.03447922568717    0.29468053120713    3.81785976860925
