    26
        -50.46215552  Gyration_radius:  2.39750592173 Dipole_moment: 4.883
 S           1.61265941717119    0.13678986060478    0.12577308776117
O           1.99536077235057    0.67870166999564    1.40430191984998
O           0.72384232721745    1.07997678215616   -0.59902604278864
O           0.93367463625668   -1.15373917969383    0.23991024975196
O           2.86661422821189   -0.04939730334537   -0.75155572992852
H           2.50703596107236   -0.56329927531578   -1.53813260919748
H          -0.25954767159572   -1.21686649677203    1.26848366221459
O          -1.03175602526914   -1.19533413011864    1.89972450996969
H          -1.09846055160209   -2.07803163539581    2.26620534982989
O          -1.04056133111984    2.15588836147646    0.82592221690139
H          -1.80380625779469    1.46808237889930    0.59049919509171
H          -0.26363976378962    1.85596734432791    0.21421950635209
O          -2.58377944770787    0.26644730644324    0.21577998803131
H          -2.21598600709300   -0.39271014233795    0.83491484716707
H          -2.21875271688432    0.04159887029950   -0.66907743050076
O          -1.17920845908075    0.05615060339736   -2.07428643699472
H          -1.43789507587017    0.77557799949687   -2.65367854634580
H          -0.39483608436506    0.38232596894235   -1.57098837990671
O          -0.09092933882137    1.16240922453027    2.90930523770091
H          -0.70093322961650    1.87199129971701    1.79214736524739
H          -0.50398662060609    0.28143252231691    2.85356105691268
H           0.81300832508168    1.04097264914355    2.53105833169141
N           1.54317338393285   -1.48507515030094   -2.46539729720845
H           0.86699518523577   -1.03023581020245   -3.06591242985933
H           1.05040666462263   -1.79740556709446   -1.63206866584971
H           1.91130770006720   -2.29221816117058   -2.95168296590273
