    26
        -50.47294857  Gyration_radius:  2.44369229529 Dipole_moment: 1.542
 S          -1.76986634114219    0.61998256299318   -0.77864614239514
O          -1.61432106006726    0.86090225490352    0.64549477522281
O          -1.69679587751529   -0.79429918615143   -1.11129100640758
O          -0.88197434970055    1.42101134920098   -1.59713299010931
O          -3.24067149842477    1.09021049189190   -1.13018733208198
H          -3.22115333051948    1.05451536743319   -2.07984686300371
H           0.69333801435616    1.13668225003332   -1.58399277222865
O           1.65397088620449    0.88847209254769   -1.61075966192202
H           2.07722829696744    1.54564581663909   -2.16518600154010
O           0.73750523884575   -1.70996472789447   -1.63746638990425
H           1.21513938551572   -0.89152181225091   -1.84935701649336
H          -0.20586442768307   -1.44342648959236   -1.57765734277235
O           0.28540959182052    2.31363478710774    1.77700217856503
H          -0.04865916068039    2.47825273657879    2.66000010598869
H          -0.44069452055751    1.86748389577347    1.29247328761804
O          -1.50615906237236   -1.61983217067900    1.46067010152856
H           0.09873954032304   -1.76545320446998    1.31328013512341
H          -1.82222063561027   -1.91991272386689    0.59800661324381
O           2.20013214362130    0.58709857381912    1.05570727529258
H           2.17683685222420    0.75001425190374    0.09432927428393
H           1.59236356816443    1.26092746316026    1.42803399942274
H          -1.61384538101073   -0.64760829996734    1.38710863666179
N           1.09859182801993   -1.79014515915845    0.96721602750732
H           1.04223724881689   -1.90799008761420   -0.09076231823455
H           1.62227055654408   -2.54152858148865    1.40077508241799
H           1.56846253386437   -0.84315145094162    1.13218834422373
