    26
        -50.45050179  Gyration_radius:  2.59564254265 Dipole_moment: 4.879
 S           0.26446168510838    1.17646708123053   -0.67442824558320
O          -0.97618915518133    1.35124925449498   -1.35882647422757
O           0.90815277692377   -0.09550274301960   -0.90921873053491
O           0.06436345072441    1.33858612550675    0.85441914916177
O           1.21054781620342    2.31804680265491   -1.00915277074071
H           2.05979768609973    2.23294606657241   -0.44195841783118
H          -0.67267935951220    0.71914970269488    1.16503052735633
O          -1.81538000932824   -0.24605400687926    1.53780679483871
H          -2.27271772760425    0.03268229757574    2.33357306010732
O           3.33336292177099    1.99182256176367    0.33329964569687
H           4.04856337180472    1.87486697312766   -0.29623280057087
H           3.18534292005869    1.09912567357596    0.77361822405853
O          -2.58070751302917   -1.98850557855172   -1.86668491751923
H          -2.13780931003019   -1.70592389408561   -2.66864714133180
H          -1.86987986497099   -2.25395948682442   -1.24291770067579
O          -0.57126225456335   -2.21324583188981   -0.08221770335419
H          -0.98849139268752   -1.79386309928534    0.68027224782996
H           0.02137648461462   -1.54261218226346   -0.46383496489140
O          -3.27303113144922    0.20638061181235   -0.49948643103272
H          -3.23423914911273   -0.62999455547428   -1.01820120010351
H          -2.47337444760354   -0.09636720576276    0.76645564766471
H          -2.63886365388944    0.79662910619867   -0.94067047583247
N           2.74285753207169   -0.41206171806736    1.22942922284750
H           2.19776783132215   -0.40588047362501    2.08187715243475
H           3.37047103064200   -1.20521570336215    1.26474547534499
H           2.09755944162632   -0.54876575813006    0.45195082696895
