    26
        -50.45050190  Gyration_radius:  2.59556784921 Dipole_moment: 4.880
 S          -1.30611173136262    0.44903051854629    0.01573838332341
O          -0.88865620031408   -0.92953326255827   -0.09681369224518
O          -1.33274467666414    1.16587813703915   -1.21864135403016
O          -0.36722787260302    1.15391357500380    1.02836783204707
O          -2.66046714175541    0.53786946583579    0.69992562794725
H          -2.60270008909208    0.10097234183652    1.62519812171951
H           0.54211672828221    1.28936280207212    0.60626108720902
O           1.88676672020067    1.46314896661283   -0.12718850351016
H           2.39572920466403    2.19408077636458    0.22888394060616
O           1.63698169865187   -1.20828614225650   -1.04616725226826
H           2.01632503203782   -0.41501263976372   -0.64848330298609
H           0.70998093322304   -1.23636789452955   -0.75210827770719
O          -2.48869826071278   -0.65648824670568    2.92664266803867
H          -1.56391113659019   -1.05232107564141    2.89806833539348
H          -3.10540185348523   -1.39163083972060    2.89921740075828
O           1.20618813780891   -0.28994172139172   -3.54504047031685
H           1.47555943535555   -0.74745672203690   -2.71866582580441
H           0.33125971020894   -0.61941709203145   -3.75740490934573
O           0.91718329438396    2.10803314064891   -2.39077627658348
H           1.57814956261359    1.76065297450048   -1.05813567573466
H           1.12299538835290    1.34052327272100   -2.97270088112606
H          -0.01212036588691    1.97857916172191   -2.13608856242917
N          -0.10043827421231   -1.68643033068136    2.51965896431937
H           0.65799203967928   -1.07053037241870    2.78281773912745
H          -0.23038666802359   -1.60230222647419    1.51190690636434
H           0.18163636527237   -2.63632657672305    2.72552796722023
