    26
        -50.46679017  Gyration_radius:  2.45326857945 Dipole_moment: 3.993
 S           0.73949299718326    0.41070649966124   -1.15863209875396
O           1.47214995931333   -0.72472930365892   -0.64869269238134
O           0.89769406605771    1.57704088899584   -0.29115083534078
O          -0.68550658840250    0.12183852503996   -1.36616194532606
O           1.34379245622954    0.76120893990842   -2.55226516768406
H           0.69694176342743    1.37391609634140   -2.95756841080753
H          -1.26962196564347    0.62951019385671    0.15855332471021
O          -1.54332637593061    0.91837543147173    1.05003210099690
H          -1.24789133276916    1.82942921265066    1.11029038627664
O          -0.91311291905975    1.95099695124134   -3.25253844905271
H          -1.34671793816188    1.61782625478814   -4.04159578708093
H          -1.12322476631143    1.32605348755517   -2.53220288788175
O          -2.16557450048586   -1.92608608985704   -0.31122067661462
H          -2.69883896642866   -1.39968673308253    0.28968206534144
H          -1.67346772599356   -1.28727823416485   -0.85344788360512
O           0.17091354581350   -2.49922767357760    0.96231139931063
H           0.71255191348584   -2.01916320348334    0.31202450109677
H          -0.71122329337192   -2.56105050798579    0.54852911821739
O          -0.04895792739465   -0.58626247975455    2.72825428666769
H          -0.01438622676430   -1.43787654936355    2.21042161603734
H           1.20506264135621    0.00762839180225    2.26688471780356
H          -0.73044923276512   -0.04932118234139    2.27177415009265
N           2.06689080843702    0.40954970672351    1.69269162466210
H           2.44166649435943   -0.35883431339231    1.13034808941934
H           2.77450147645196    0.84957221791202    2.27064128609587
H           1.65064164738613    1.06586345271967    0.96303816780117
