    26
        -50.45831345  Gyration_radius:  2.47975515968 Dipole_moment: 5.161
 S          -0.95116763370888    1.45250091862488    0.82943633733929
O          -2.02699485582896    0.52279840259112    1.01000760317208
O          -0.82185955456915    1.97719863136511   -0.52438141500552
O           0.35121389137004    0.94765450560522    1.28944184585877
O          -1.26431426629210    2.69697721153052    1.75796187406356
H          -0.57638623820949    3.32408167315884    1.55762936023617
H           1.40878627452258    0.39034761701133    0.33634055288241
O           1.99622555477604    0.00301777838227   -0.39580168110010
H           1.83358103781908    0.64386179127372   -1.22551277386803
O          -0.71214289765832   -1.03973983890501    2.73289532167095
H          -0.06431488103814   -0.36944082207134    2.46351408206464
H          -1.53000144739329   -0.70199168625833    2.33642128155136
O          -0.05109338767038   -3.09946188826938    1.19402756834255
H           0.53919830944486   -3.65620382909305    1.70278411186676
H          -0.34187529962287   -2.37525850372889    1.80260500635960
O          -1.45984533784440   -0.42860609793354   -1.50688463945025
H          -1.26794642618673    0.49956690736105   -1.28030817244167
H          -2.12433720696419   -0.68657438202850   -0.85998626546834
O           0.66954858512669   -1.96614565260912   -1.07618589683969
H          -0.15350448401872   -1.49927879562807   -1.35625479403141
H           1.49385973845437   -0.92342567713230   -0.68258976601238
H           0.41848771906462   -2.47886041609110   -0.26784360758138
N           1.30702983456858    1.53704825824294   -2.30180728450621
H           0.49616449782541    1.90761728435369   -1.79966636011426
H           0.96476549211962    1.01335002278457   -3.09768612299824
H           1.86692300208784    2.30896656736646   -2.63815616600064
