    26
        -50.46679032  Gyration_radius:  2.45317204009 Dipole_moment: 3.991
 S          -0.28860242856096   -1.33253831602155   -0.44399150185293
O          -1.49157599823877   -1.02099979875534    0.32647812422901
O           0.86141727196021   -1.48135609245634    0.41703652147757
O          -0.08545975216690   -0.32875824139937   -1.49669963892491
O          -0.51309722327700   -2.70227200780888   -1.15388295076570
H          -1.14617054836895   -2.50842691487985   -1.87480330525106
H          -0.72212121069854    1.02932937699713   -0.67447154069396
O          -1.08272235173289    1.76976242153076   -0.15038006865304
H          -1.97247423507540    1.49284015673415    0.07891031547158
O          -1.81507024563240   -1.49210017617162   -3.11338394121917
H          -1.24826225048911   -0.82402039488314   -2.68214558745175
H          -1.46800964858182   -1.61704370871673   -3.99971760882132
O           1.79233430035898    1.66204566301655   -1.58938980853810
H           1.19662084328028    2.40404156140355   -1.45870401889945
H           1.22143713668846    0.88458009076737   -1.70736362462864
O           2.44331642600938    0.69375334173541    0.86965827425948
H           2.47057421411636    1.12703892498447   -0.00481999091120
H           2.04151400989259   -0.17571139173056    0.69866628091744
O           0.41628395696631    1.79064978923562    2.10052367393545
H           1.29809495638432    1.51885202334927    1.72225715686359
H          -0.13717343235903    1.98715901752978    1.31555719439464
H          -0.06166790110861    0.47433225027538    2.52217158212819
N          -0.36797031380955   -0.58968884169334    2.61051253949729
H          -0.79010920677885   -0.82176627096076    3.50283562766273
H           0.45647939823052   -1.16041735959756    2.40594797957506
H          -1.00758575704105   -0.77928511249489    1.77919830619938
