    26
        -50.45831365  Gyration_radius:  2.47980851232 Dipole_moment: 5.158
 S           1.00786499551665   -0.45083694428494    1.57554100937789
O          -0.15583976511389   -1.30741504232753    1.76708304272054
O           0.81814179306620    0.91293005367823    1.97373066584728
O           1.51118934148386   -0.60222390715046    0.20195529540512
O           2.14955842505761   -1.04084295252482    2.50147235101311
H           2.20240761619579   -1.96008975504033    2.25907555779008
H           0.60606122190735   -0.96281590036680   -0.97589953135276
O          -0.10962968893877   -1.15520310622379   -1.67026434771075
H          -0.78090198087651   -1.81143670448295   -1.17701101189370
O           0.42102544235402    2.85175428785932   -1.65078275283379
H           0.86170800790402    3.12779007087129   -2.45505705459185
H           1.13616754576180    2.58372635041595   -1.02144370115308
O          -1.75052366691033    0.70544136900555    1.01475554087257
H          -1.29002450394548   -0.08417950125388    1.35253079431431
H          -1.27754970023405    1.43612522622747    1.42584780784391
O           2.29280671619245    1.94997220495149    0.00184650208806
H           2.27854524831275    0.99627741881100   -0.17659216896694
H           1.87794215537173    1.99878597849751    0.87683447106270
O          -1.40396179093651    0.94762463906720   -1.61300949905167
H          -0.77899927646655    1.71105579959432   -1.68984976313295
H          -0.67008513030225   -0.22074327154401   -1.74589908343428
H          -1.67693709733183    0.92669632640451   -0.66495086063873
N          -1.68141865051997   -2.54833860970626   -0.23788510936989
H          -2.61642128468180   -2.16053289338100   -0.22378107740368
H          -1.22192767537778   -2.28746216450055    0.63829666558305
H          -1.74919829760724   -3.55605900272027   -0.28654374238952
