    26
        -50.45831351  Gyration_radius:  2.47972783955 Dipole_moment: 5.164
 S           1.32214271749055    1.29798127980271    0.51831771864235
O           0.22669644034655    2.20414224761788    0.70091125657489
O           1.70981567249954    1.08493343483229   -0.87062597063850
O           1.13368428136635   -0.00044555105592    1.18253747203912
O           2.57634079855443    1.95027143230721    1.23270817002577
H           3.29839535521847    1.36323487743785    1.03115312848317
H           0.68974817488065   -1.25808349229591    0.43468847629787
O           0.34536103356858   -1.99747239828156   -0.17003249378148
H           0.84781910906418   -1.83566388240477   -1.09005938217048
O          -0.85097090469671    0.87271596392267    2.75160305259920
H          -0.72464786303645    1.67763929847681    2.22605332228442
H          -0.10127383603380    0.32568553961176    2.46834458653302
O          -2.89940561617322   -0.34673596670612    1.58351587023535
H          -2.18323042081629    0.14810083331520    2.05431467881231
H          -3.26885826400894   -0.95640245272817    2.22305087763332
O          -0.86708140201870    1.14640810063724   -1.58899524898955
H           0.09993460050909    1.15488579658163   -1.46880360677742
H          -1.17530712074424    1.83425727140002   -0.99027962197898
O          -1.90575822410322   -1.14651621910749   -0.72504175021792
H          -0.68684322673430   -1.71107312739869   -0.38527142437534
H          -2.36513734638166   -0.88598889656174    0.11197206419683
H          -1.64091972857782   -0.29800240906623   -1.15373187747863
N           1.49975330958158   -1.30699848489984   -2.32704894022373
H           1.75827391457015   -0.38299542072326   -1.97160829302219
H           0.83687842581804   -1.17401818812781   -3.08050096022568
H           2.32459013058841   -1.75985958500282   -2.69717108328653
