    26
        -50.45958793  Gyration_radius:  2.41995902132 Dipole_moment: 7.278
 S           1.74847156311852    0.61758992223263   -0.13441902056689
O           0.67638595786738    1.49930790481822    0.32859497566820
O           2.15079648541988    0.86962813263170   -1.48917973520887
O           1.42005230603945   -0.77323657411033    0.15384033039613
O           3.00759037188757    0.94420117759715    0.77348870727019
H           3.46902469220252    1.54249266389218    0.19708079537542
H           0.19042271604047   -1.38198968843892   -0.71386961443791
O          -0.59634009976974   -1.69898735740817   -1.21852700735138
H          -0.42425947013109   -2.61103850518589   -1.45604976887926
O          -1.06517271112769    0.54454032706459    1.89109225615853
H          -0.59557595494630   -0.31625786488988    2.26448330358617
H          -0.34327415821281    1.01514378199879    1.34604446715272
O          -0.08423886013625    0.45903150882292   -2.97219128786035
H           0.79099333587569    0.65677870693109   -2.59513582570722
H          -0.34289554860272   -0.39658455196155   -2.60290524336056
O          -1.52527093729386    1.97306360912336   -1.30538669556669
H          -0.76697532488811    2.12375360522945   -0.72210170702072
H          -1.13377808905883    1.55660084138609   -2.10420732136436
O          -2.47447690194614   -0.08901921227861   -0.04378199031253
H          -1.96442517004011   -0.78342451899739   -0.49790926149509
H          -1.76956313125389    0.24014853074967    1.11884954861651
H          -2.30088818186485    0.74350751387274   -0.57815025801855
N           0.29354700922218   -1.49927662901584    2.58850653777038
H          -0.12337335687783   -2.42076167183487    2.59488398989043
H           0.86954530546081   -1.40187325970593    3.41402494419510
H           0.89367815301776   -1.41333840251887    1.76292486107646
