    26
        -50.46577285  Gyration_radius:  2.41259008484 Dipole_moment: 4.004
 S          -0.56783339256374   -1.02635624677267   -0.95621734239090
O          -1.10538699604992    0.33054813142842   -0.85070448991297
O          -1.32825732180357   -1.98132350677102   -0.19145066660030
O           0.88715483427094   -0.96168332725606   -0.33116186894717
O          -0.31472391329860   -1.40000526947611   -2.34138777941732
H           0.90541739432126   -0.66230544084662   -2.65737246439245
H           0.75854170466510   -0.95730005956130    0.65777399963272
O           0.40576088156717   -0.79658099245252    2.20274784225672
H          -0.14840597511371   -1.54414857732516    2.44507239174235
O           1.37955815902362    1.92089182268837    1.20068398374546
H           1.67072882244561    1.07014681605606    1.54062868041530
H           0.46322265992720    2.01881720426482    1.49285116900199
O          -2.51900175793759   -1.31126941261437    2.06886118796589
H          -3.36417534707927   -1.75913456650008    2.11407500854997
H          -2.11988459880510   -1.58430206983318    1.21192051774581
O           0.83913457317878    1.97319997322539   -1.44592098287805
H          -0.01536200199520    1.50373341563858   -1.29966875335715
H           1.19973218511054    2.08490009081192   -0.54032681898550
O          -1.33110890883352    1.12143874355154    1.65238261509891
H          -2.06002227626844    0.59015946628758    2.00523968441843
H          -0.22280389033387   -0.03138323945015    2.14968609603821
H          -1.33540688630773    0.92577011879372    0.68724196876697
N           1.80110071848236   -0.03803089217893   -2.72215550329974
H           1.50727883807042    0.88762414365787   -2.21036937747244
H           2.07644229218537    0.12588429493347   -3.68508861118413
H           2.53830020314503   -0.49929061030859   -2.19734047652597
