    26
        -50.47250196  Gyration_radius:  2.48726851197 Dipole_moment: 2.861
 S          -0.73413230592550   -0.32516394014479   -2.12112973526015
O           0.65155978455522   -0.70290071595313   -2.36975856630240
O          -0.83276878648009    0.82145431505223   -1.23827225606987
O          -1.53843872513688   -1.45441562685787   -1.69474274432298
O          -1.33154441513456    0.13728991734421   -3.51364780752378
H          -1.40076388125049   -0.69552868611594   -3.96765430789668
H          -1.20786333934724   -1.91322874690338   -0.20458312425105
O          -1.03465096383401   -2.14527824306838    0.74524962468917
H          -1.27828697273836   -3.06721445705349    0.84001552440671
O           0.04042403749671    1.34964526998310    2.40154132785097
H          -0.22055529509798    1.78386723932019    3.21383988369301
H          -0.80445480861737    1.04410296092742    1.95963147095373
O          -2.02999552503827    0.42853920499317    1.11703938908817
H          -1.92897833338556   -0.53250546248149    1.18066135516359
H          -1.75120544015709    0.64282168509512    0.20401781451520
O           0.96093359748521    2.39609821372270    0.02369142210336
H           0.22420569512790    2.07248355808487   -0.52699063800378
H           0.68183193574333    2.21984963153645    0.94084496673197
O           1.26008386425821   -1.02343241494489    1.71839670779126
H           1.94901960994972   -0.42182415751162    0.41053150528014
H           0.91035690681556   -0.21617608016270    2.13695163155016
H           0.47472126425979   -1.51526793618074    1.41226562268589
N           2.21081966681021    0.13447972876501   -0.45587534562731
H           3.20387790534811    0.08370713744447   -0.65104949478754
H           1.88329203459580    1.13357060475921   -0.28860283797692
H           1.64251247087943   -0.23497299975603   -1.27237139785138
