    26
        -50.46622916  Gyration_radius:  2.43306953481 Dipole_moment: 3.931
 S           0.78521801039608   -1.16403028989323    1.32812424159784
O           0.90681194768133   -1.76263239653626    0.01619770278708
O          -0.61215907707532   -1.00459071769472    1.73259462915526
O           1.54143269255030    0.05924098282160    1.49958629068529
O           1.40569941501128   -2.21797611530571    2.33519783337912
H           1.41086037026097   -1.75831574474053    3.16879642314659
H           1.73125934391931    1.08305034146183    0.21496500354246
O           1.80198685140777    1.70305913537675   -0.54699478059825
H           2.62997145526497    2.17295595421196   -0.43873008246247
O          -0.74460500576287    1.64481783455149    2.06826567670532
H          -0.83677950806034    0.67607626644256    2.03461957862302
H           0.19931153734536    1.79000187484208    2.17883223927626
O          -1.56048101554864    0.23294614323686   -2.15435156865050
H          -1.72999276201125   -0.86185434764596   -1.25375727804004
H          -1.48934823244884    1.05581751280894   -1.60396663031404
O          -0.95190918791929    2.24492322843592   -0.57492297003985
H          -1.07329218641198    2.12097615633314    0.38692352774520
H           0.00774911450369    2.26208690281273   -0.70339715802924
O           1.03864234678403   -0.28934927682614   -2.29886354652724
H           1.12920173286368   -0.93639430371976   -1.58082576068222
H          -0.63170953083521    0.06519990918516   -2.44822554564919
H           1.40614271344987    0.52936547909924   -1.92987889323494
N          -1.65725805820830   -1.72862010349273   -0.53980307537125
H          -1.60847658129822   -1.37747279103068    0.44120356245874
H          -0.70816847580496   -2.12318265689497   -0.65720112837321
H          -2.39010790005535   -2.41609899783651   -0.67438827112763
