    26
        -50.45202107  Gyration_radius:  2.4753014402 Dipole_moment: 1.186
 S          -0.39391651251887    1.48232342375582    0.12762550682509
O           0.28986979036828    0.63519704236458   -0.83008733720005
O           0.47908465663826    2.14672945957441    1.03942294872550
O          -1.43343338671020    0.63100827674486    0.88180041004542
O          -1.26740756260711    2.48766660783880   -0.60790344864318
H          -2.00307666450800    1.95916489072971   -1.08166319276788
H          -0.98795995039150   -0.05527817884227    1.48701372519213
O          -0.22505252360240   -1.02508538470180    2.38589576822837
H          -0.56740554342718   -0.99358495457024    3.28135850660425
O          -0.09805144362875   -2.07088694027863   -0.28978020329744
H           0.15649000133120   -1.14789832843824   -0.43110442333772
H          -0.23368535345285   -2.15471176780871    0.65867092462611
O          -1.28473241627413   -0.74153980659837   -2.55744535234113
H          -0.56412846481019   -0.21234734896466   -2.17436519885589
H          -1.26130277193162   -1.56750539479549   -2.05749028003605
O          -2.99139538613320    1.11210129317699   -1.85631055673977
H          -3.27136467560810    1.56459348971204   -2.65553564115817
H          -2.46267908921565    0.32074550505647   -2.15045966498940
O           1.98109278603807    0.25153071962615    2.29557006255125
H           2.45625678569358   -0.12877777064325    1.51473439926205
H           1.61726506167067    1.09626238444497    1.98194205474647
H           0.69773955313139   -0.59348696042083    2.41736722428639
N           2.84495985032666   -0.68818889467762   -0.07813388158005
H           3.76681140771050   -0.56773597067738   -0.47728715119497
H           2.19827076204763   -0.09317545895514   -0.58810533240865
H           2.55775107984691   -1.64711993264308   -0.23572983655525
