    26
        -50.45202114  Gyration_radius:  2.4752523741 Dipole_moment: 1.181
 S          -0.01221570452881   -0.28432676508936    1.51148909717078
O          -0.15167751363147   -1.68446899378452    1.74656078506116
O          -0.92567452644291    0.23860015385042    0.51420894786129
O           1.42807813085993    0.06196653326862    1.08769003411957
O          -0.16707379025452    0.49541474298456    2.80882518234492
H           0.14643818687376    1.45105412703964    2.62577505117797
H           1.70752029122089   -0.45248333033379    0.25509718713153
O           2.04086645396434   -1.29395911893418   -0.97396598082950
H           2.88060434468035   -1.74241773473030   -0.85662190812915
O           0.50710631192502    2.87603001638419    2.26038223520917
H           0.03912668661780    3.49788551723690    2.82267970446615
H           0.14164737456274    2.99597760191911    1.34152416775122
O           0.38236273748655    0.88064130704081   -1.86149959098402
H           1.14484985613532    0.29872489104344   -1.93180404765173
H          -0.11913723578911    0.55441238798109   -1.10076332982825
O          -0.67915012687415    2.87585752361356   -0.07032758955677
H          -0.14836505753716    2.74028062048962   -0.86568931456790
H          -1.04416887458070    1.99545295365163    0.12386981570110
O           0.15005381566194   -2.97181165904880   -0.63574346864671
H           1.32275241891032   -2.01592357213519   -0.93017513089552
H          -0.02496979471038   -2.76687815802335    0.29790725488730
H          -0.61578965975275   -2.58655862695854   -1.13080418414137
N          -1.83502540509307   -1.50441206109945   -1.71765256251276
H          -1.88788895150595   -0.90752486919684   -0.89710150263017
H          -2.77007980782208   -1.82217106015600   -1.93765137584174
H          -1.51019014037090   -0.92936242702774   -2.48620946665502
