    26
        -50.45202103  Gyration_radius:  2.4754101187 Dipole_moment: 1.182
 S          -0.97859141222230    1.01220673961883    0.62044430866333
O          -0.36712155563329    2.29808132729220    0.70763208954420
O          -0.13159240759774   -0.07392195807243    1.07357394743162
O          -1.42989848105903    0.71384525489201   -0.82221814429017
O          -2.29396146310431    0.99089802995010    1.38485506949028
H          -2.78324256694442    0.13316384856964    1.12062647414485
H          -0.65195367228066    0.76459749940697   -1.47637279290368
O           0.57207654082299    0.89755620948063   -2.37899721788479
H           0.37593768135737    1.46027898248785   -3.13060663800942
O           0.77510112791017   -1.64152439919284   -1.04431105396421
H           0.58134259653367   -1.04922552603510   -0.30385572627704
H           0.82078757193144   -1.07342732823581   -1.81899148428062
O          -3.39984352656712   -1.20875201778105    0.78357401409999
H          -2.62488437414771   -1.83304393883888    0.73818276397682
H          -3.95500848727674   -1.51626654565303    1.50405342508047
O          -1.16967304242569   -2.57196210037234    0.87075888029260
H          -0.72096532677406   -2.78564114332937    0.04267350608879
H          -0.70659970516291   -1.77982493778930    1.19345096432710
O           1.96590303437752    2.21521843194451   -0.69772615458110
H           1.20913322015481    1.42639716094590   -1.78473316351339
H           1.23118382378186    2.49269043673746   -0.12541778346556
H           2.44836912191376    1.52396089621312   -0.17878008070906
N           2.82091865059603    0.12795431988643    0.77796761627672
H           2.96410000773510   -0.70378315794502    0.21712783114639
H           1.91598938953191    0.03326910990753    1.23014726462462
H           3.53249328454669    0.14725481591775    1.49694208467115
