    26
        -50.44902416  Gyration_radius:  2.49049497857 Dipole_moment: 5.062
 S           0.79097413647621    1.59029645534657   -0.68025139721262
O           1.27417443576619    2.28085616890529    0.49726173351793
O          -0.61590925905367    1.26726295939878   -0.62764700525390
O           1.57761174717156    0.39775211790147   -1.00128856833132
O           1.00977690793128    2.60986883514759   -1.88014994543610
H           1.51318874911374    3.29421293643450   -1.45137542628032
H           0.52985032786631   -0.75489818239059   -1.11186685439422
O          -0.05590476653795   -1.56597427964806   -1.06185160168912
H           0.53504728784962   -2.31859339056578   -1.12925214757977
O           0.42478613617918    0.46982092596451    2.21008122533057
H           1.26636865934545   -0.04866964753727    2.13839193427334
H           0.60333387117901    1.25996849950542    1.65244997617740
O          -2.70681604106935   -1.22324338994239   -1.96429694420894
H          -1.74344856460209   -1.18831619834010   -1.86153790926378
H          -2.95076058584464   -2.14975638266027   -1.98850213018083
O          -2.99779101500219    0.48479556247949    0.11603002058901
H          -3.18547544990004   -0.04545209118507   -0.68341821441254
H          -2.28665453419430    1.09049657160294   -0.16923730999550
O          -1.28826406728346   -1.00238911425102    1.17464148163816
H          -0.82018243167484   -1.28279157345037    0.33154386756992
H          -0.59141624352232   -0.34315739923274    1.66964896558845
H          -2.08694164106430   -0.38496680597716    0.83323318944976
N           2.73107461638708   -0.61420772431810    1.41550416887061
H           3.11916550425871   -1.54346646128326    1.31196334602449
H           3.46506080001899   -0.01556248772491    1.77319657671817
H           2.48915143021427   -0.26388588417675    0.48672894849815
