    26
        -50.44902478  Gyration_radius:  2.49045720967 Dipole_moment: 5.040
 S           0.85833709354834   -0.84097067763888   -1.47269736812080
O           1.04110790208759   -1.13348144180780   -0.06992860456643
O           1.76641607477035    0.16643301372084   -1.98005051222102
O          -0.54545189280822   -0.53248238179969   -1.75168527412980
O           1.20019563810047   -2.16001806920864   -2.29159917701834
H           1.81251621147408   -1.82336533944405   -2.93767354810150
H          -1.25617187074191   -0.61577387528655   -0.36322849856153
O          -1.75382619142683   -0.51168040113158    0.49975505640008
H          -2.61663567125526   -0.16582828081083    0.26275263214750
O          -0.97622466291898   -2.25072347440732    2.58116932325953
H          -1.71304341477110   -2.07909690929196    3.16958374602831
H          -1.20825737081420   -1.86930312111214    1.72064620360108
O           1.13794695342702    1.98824265956260   -0.18519714864665
H           0.39799017555189    2.33880169102520   -0.74357120034264
H           1.54656602791617    1.30507302797933   -0.76262684024896
O           1.40649384910173   -0.96673285435713    2.51397475471722
H           0.69437653883542   -1.58993139609477    2.75864119471813
H           1.59379833620084   -1.18375777437500    1.58024190099424
O          -0.00306814186048    0.95977091099763    1.76794344009842
H          -0.72286632768385    0.42610292893869    1.31444793819325
H           0.64832984161081    0.22100733222821    2.17485459853413
H           0.54181949093207    1.42697973053517    0.96178943411050
N          -0.83208471525105    2.30839609740797   -1.95766017194990
H          -1.79758571962841    2.61276684234838   -1.95056749514841
H          -0.81883469502794    1.29039482489478   -2.04350655951159
H          -0.40184346936596    2.67917695712908   -2.79580783423569
