    26
        -50.46791782  Gyration_radius:  2.53726095058 Dipole_moment: 5.011
 S           0.04779184070942    0.49967159717034   -1.10134980967443
O          -0.77431236571733    1.53554386824488   -0.47882753252694
O           0.87166350019114   -0.18636891345300   -0.09727099626852
O          -0.74341730601672   -0.46845553205598   -1.84145715012257
O           0.99624138565293    1.25259971896521   -2.06453938029577
O          -1.52638543656049   -1.93729823630341    0.18100199464356
H          -0.68507386200531   -2.28435812623980    0.49006872095833
H          -1.32289309891791   -1.47154628293725   -0.66622955743500
O          -0.74612563821328    1.02878640261713    3.42659733143613
H           0.00743650109537    1.30512459807014    2.83893054245172
H          -0.88202599623919    1.74962364230520    4.04298176542811
O           0.98100749470162    1.82327759250433    1.60336194514413
H           1.16446511414186    0.99654885020352    1.11441535737129
H           0.43158664072422    2.31373740432491    0.97859840315784
O           1.30124477862252   -2.32695244974845   -1.57424728567977
H           1.22482272130320   -1.63033231723599   -0.88851958054280
H           0.47244642978428   -2.26983259347462   -2.06341007642375
O           2.69473994317228   -0.52361033510656   -2.92267799814068
H           3.52596453537772   -0.38908137897301   -2.46237378944087
H           2.28744208677704   -1.33568181089300   -2.53246896517308
H           1.63572741157633    0.60629641919649   -2.47680236910120
N          -2.22163663400486    0.34429922227280    1.31808317253817
H          -2.04224600626571   -0.65732990701377    1.02800429002199
H          -1.71959166689706    0.92289919565428    0.57301382950980
H          -3.21512062467448    0.54778688034281    1.33321836611219
H          -1.76375173832063    0.55465249154971    2.24189877205941
