    26
        -50.45662670  Gyration_radius:  2.48385798535 Dipole_moment: 1.796
 S           0.75219836580637    1.91114626454461    0.25307504792360
O           0.83230901473693    1.01807605354981   -0.88378842778275
O           1.08590300957963    1.22224000399310    1.49750883205547
O          -0.48471582035783    2.65414979675499    0.35693659866130
O           1.89186799718898    2.99562320494595    0.02794096024984
H           1.57244136833439    3.71918428735594    0.55656796615595
H          -1.41787246860391    1.45596230948643    0.83207552446391
O          -1.97776491503695    0.71245539389825    1.17209664190433
H          -2.31397379015874    1.01159944430898    2.01906775138750
O           1.55436394355256   -1.24100926155992    1.39932338438748
H           1.43964086111792   -0.22699438150574    1.51989174368340
H           1.99918787574829   -1.34050111097237    0.41743063971145
O          -0.66856111765431   -1.10469414876448   -1.68335324931133
H          -1.59256402058823   -0.80773179478120   -1.77663273657659
H          -0.15961216507735   -0.28845200736992   -1.53208615766016
O          -3.20068296950826   -0.21864372175919   -1.14988921118941
H          -2.86828424774696    0.23915210196366   -0.35936810254517
H          -3.77602131110175   -0.91908296710248   -0.83717039036495
O          -0.83592715479938   -1.75455076781010    0.85643302409538
H          -0.78139783039935   -1.68419677631032   -0.13480213322389
H           0.56360654218562   -1.56325986014752    1.26321201978609
H          -1.28559641616648   -0.93144654540991    1.12410555506823
N           2.39656422236983   -1.27564814056244   -0.97900889767232
H           3.37187351711173   -1.32558109383351   -1.24010373281753
H           2.03848874465986   -0.33560287941439   -1.17018618105255
H           1.86452876441058   -1.92219341329765   -1.54927647891312
