    26
        -50.46220853  Gyration_radius:  2.42258143067 Dipole_moment: 2.968
 S           0.52962266068614    0.93462176825041   -0.64965328095281
O           1.13449604471212    0.40621592170594    0.58175525532426
O          -0.68520320359683    1.67896064715129   -0.34607050260166
O           0.28084325901414   -0.14740550414264   -1.59219046716493
O           1.53154305269976    1.92948249735187   -1.27664315823122
H           2.27696652579911    1.33448899871097   -1.57895298611953
H           0.44000621998155   -1.57329648984092   -0.72105189612287
O           0.58716132195601   -2.26582193955128   -0.04065883925206
H           1.23837239701524   -1.87752183220889    0.55160775511959
O          -1.63738726354185   -1.76368832639233    1.28511715309229
H          -0.86694523861038   -2.17914764388925    0.82008783701336
H          -2.11555999861209   -1.26215200273551    0.57778802273523
O          -1.99315945636086    2.03257903774626    1.90403349343300
H          -2.88851257227723    1.77692480477007    1.66793579982280
H          -1.50896611307035    2.13345092104173    1.05468171641671
O          -2.47565669808567   -0.23723117292110   -0.70743426243238
H          -2.20150111794861   -0.67396365224458   -1.51777677248432
H          -1.88218463536654    0.53951229065342   -0.63802114927217
O          -0.46828890450420    0.05945879754336    2.48082601862829
H           0.26647102424025    0.24181962741972    1.77420794100623
H          -1.09239741111413    0.86305409216752    2.42161022975330
H          -1.02414293768388   -0.79039501143833    2.05077761236308
N           3.09143065047941   -0.03747166093964   -1.97465317648870
H           3.67364475173510   -0.11970226491572   -2.79775958402172
H           2.21906838258465   -0.53313101725821   -2.13384271229404
H           3.57027926985096   -0.46964088602511   -1.19572005727476
