    26
        -50.44768852  Gyration_radius:  2.67874701613 Dipole_moment: 3.498
 S           1.77040635059933    0.53914819177393    0.10665750497720
O           0.76575461962065    0.98037323592175    1.01869192148876
O           2.21580125318988    1.46308358196013   -0.89389919274092
O           1.31669176845178   -0.73462729586829   -0.63488730758534
O           2.98995421917100    0.04490830198246    0.93513808543927
H           3.69140109205307   -0.14940382273354    0.26910310617623
H           0.52044947770328   -1.23957176901101   -0.20027144993112
O          -0.65757726473935   -1.98483564432610    0.27945781347906
H          -0.65598399129436   -2.85202024719919   -0.13069330452633
O          -1.12942367034386   -0.31746308455848    2.51826164309137
H          -0.45494634812307    0.29417526093522    2.18648846439433
H          -0.98506182814870   -1.13037681829384    2.01800648709346
O           4.24501246481548   -0.20390249152963   -1.34601690343059
H           3.68786602118222    0.57900405001003   -1.50072874467666
H           3.85296723153370   -0.91993438216603   -1.85204239839941
O          -3.42600133603247    0.46117006534747    1.37008515184309
H          -2.60454987646204    0.27460018116135    1.88110322597192
H          -4.15096420798572    0.11725926924406    1.89312260789110
O          -2.41310748239847   -0.59349900939638   -0.88599934011192
H          -1.86946139882723    0.15709845475622   -1.22710271455379
H          -1.41056142177173   -1.44607546122652   -0.19521056471546
H          -2.93036231261413   -0.20263513478684   -0.14912680985963
N          -0.77268143122232    1.50004604358579   -1.40006864639128
H           0.11143000874751    1.34277540494928   -1.86904980911028
H          -0.54236972312185    1.66090149241395   -0.42482247101158
H          -1.16468224399919    2.35980161705704   -1.76619635480104
