    26
        -50.44835623  Gyration_radius:  2.64544946117 Dipole_moment: 5.184
 S           0.92169921630230    1.19286881609654   -0.15571137567324
O          -0.41667157048792    1.56475988132350    0.17222319692486
O           1.12611729520548    0.68879049275096   -1.49034902390471
O           1.44556526629339    0.13868186255712    0.85194411587802
O           1.87074414750912    2.36539251321939    0.10591407592333
H           2.76366139443109    2.06532454545116   -0.30576523768681
H           0.87311381187699   -0.70592814398522    0.84870965426477
O           0.03972386069756   -1.97619644100718    0.83094432961984
H           0.37015127746564   -2.58532576578566    1.49400186762170
O          -2.01139839566603    1.20967589504926    2.29787433215937
H          -2.80532912019048    1.70622244427433    2.08943380500427
H          -1.38640846270049    1.40111338181930    1.57325498754661
O          -0.69016011723184   -1.31210043024971   -1.82292849492922
H          -0.38662894506062   -1.80883514947158   -1.05245517881236
H          -0.09886780842060   -0.54434105326204   -1.88217243694937
O          -3.18879640296312   -0.82123056944615   -0.95892310804212
H          -2.29530106908341   -0.88529414055957   -1.36447241865127
H          -3.74111588372870   -1.43994155839864   -1.43903188874566
O          -2.31593317390115   -1.34781704889642    1.53035793882796
H          -2.75440971685145   -1.17026382704455    0.66946924540081
H          -0.91711195225667   -1.73289081641024    1.13055907638800
H          -2.23518236234562   -0.46698751491816    1.95607308262476
N           3.84329011261437    1.28191533849040   -1.11179396769342
H           3.14467574907851    0.78764222325860   -1.66093105980704
H           4.37793280764014    0.61211351753091   -0.57539152321460
H           4.46664002178738    1.78265154760414   -1.73083399408113
