    26
        -50.44835627  Gyration_radius:  2.64551649741 Dipole_moment: 5.185
 S           1.49594391749999    0.11107939159482    0.21756209320430
O           0.86431108098802    1.37970879243660    0.04808319224996
O           1.59102354750425   -0.70792553028044   -0.96459051199617
O           0.77337983534165   -0.70261983487139    1.32082864541365
O           2.88573186125315    0.29525005617015    0.83280932529178
H           3.31814953456687   -0.63492233641578    0.76475101575898
H          -0.20701237910360   -0.86602684827720    1.09013644460690
O          -1.66123755349685   -1.13439027888779    0.74127782686790
H          -2.08264798754837   -1.60322350842415    1.46410594294829
O          -0.93097309312510   -0.85685935478466   -1.97984903513149
H           0.01998433506645   -0.77363496831414   -1.80284305002205
H          -1.31279314509500   -1.20413233453036   -1.16366078379400
O          -2.32691875450392    1.43957367000662   -2.06743459449831
H          -1.71986063962010    0.66804103361563   -2.12348334788227
H          -3.00373710521394    1.29112870296615   -2.72943127776003
O          -0.93128764053696    2.80183323585400    1.44113910315381
H          -0.21660797852452    2.30700529094533    0.99762273655061
H          -0.99670909611249    3.63485135240741    0.96974999112031
O          -2.82404792544113    1.11192648123270    0.55568252601685
H          -2.14649360527817   -0.22583243900143    0.68009428826103
H          -2.22854622052419    1.75186061956833    1.00232850726607
H          -2.73973667737182    1.31780635144844   -0.40110896640384
N           3.60707719982448   -2.11885834656155    0.38593418971664
H           2.95067745451116   -2.09976378058566   -0.39037334210167
H           3.29891100078187   -2.80263219708132    1.06389927012842
H           4.52342004415106   -2.37924321021512    0.04676978108099
