    26
        -50.46564195  Gyration_radius:  2.4202452689 Dipole_moment: 2.441
 S           0.59113649293061   -0.28102887862150    1.11989598720640
O           0.64034258636803   -1.64549067919821    0.62272363665892
O           1.46939343913971   -0.16198668180218    2.38614859108073
O           1.14169120052528    0.65167591401206    0.12212388566983
O          -0.75962167759243    0.11941670927810    1.49598615925852
O          -2.76309664236131   -0.48904817769533   -0.06834985195994
H          -2.04211474039031   -0.29719826376325    0.58122328409349
H          -3.54194056047708   -0.69249989017585    0.45145735698262
O          -2.01232113106974    1.73302623046169   -1.47895957204774
H          -1.65376477503051    2.25774085831567   -0.71831358293680
H          -2.52653485948467    1.01160559301996   -1.07185033140133
O          -0.77652661124374    2.65764307290017    0.66624764514651
H          -0.84510440697750    1.80865206627972    1.14530594845993
H           0.15443960767904    2.72476443182539    0.43492454197614
O          -0.85883307647617   -1.83331460804601   -1.51983400318106
H          -1.72662402253636   -1.59380234246026   -1.15251255116364
H          -0.27461882255276   -1.95219124029607   -0.73362238369064
O           0.02946058427932    0.44191124962316   -2.11298936134741
H          -0.83770541495399    1.04999633209510   -1.96469154599930
H           0.58065531205711    0.56883085763390   -1.24320085153407
H          -0.31939859155945   -0.54289040186844   -2.03355692026684
N           3.41357824753845   -1.15010599115848    0.97941330950832
H           2.35329951195022   -0.49324072258517    2.05434653231166
H           2.68262273607270   -1.73423239030984    0.58355080881974
H           3.64856490119277   -0.44218401927982    0.29572799779012
H           4.23302069296527   -1.71604903819349    1.15880525056758
