    26
        -50.47128649  Gyration_radius:  2.44470639795 Dipole_moment: 1.910
 S          -0.49321907441981   -1.82671074926362   -0.05828635138326
O          -1.66753053457371   -1.27777200099358    0.59691675954819
O           0.63710180935970   -1.93612834186171    0.84960778797565
O          -0.15750250925974   -1.13047367034514   -1.28422794396400
O          -0.86122156758738   -3.30571861225935   -0.47737890175370
H          -0.93289843551238   -3.71016871093494    0.37982638905799
H          -0.38856101756282    0.58361171914815   -1.32272104927978
O          -0.48926163894890    1.54867422874853   -1.22565608349784
H          -1.39499162219665    1.65440960471111   -0.88951248805072
O          -2.91471330514928    1.00785244661174   -0.04529127658700
H          -3.71993351097935    0.83887755299568   -0.53558994838407
H          -2.53249434597396    0.13085298938741    0.16519557761538
O           2.09198817117051   -0.06018320194469   -2.26242632900005
H           1.74555173651270    0.79397236347272   -2.53656904453970
H           1.30311565847886   -0.61471029467510   -2.10514715421785
O          -1.00009896566358    0.74781659876267    2.27025172238633
H          -1.78227048540260    1.26397544765246    2.05100449327397
H          -1.12590194870124   -0.10097832050976    1.80991555384309
O           0.96731288422673    2.00475257924542    0.96019668318119
H           0.47077564859096    2.03216243769554    0.10864733558612
H           0.31951744053047    1.63854518795323    1.60228348652949
H           1.91215247288410    0.85013668969151    0.70366284371776
N           2.41770583715081   -0.06120204659974    0.39826231081235
H           1.77171245473528   -0.86058970139882    0.63980432643680
H           3.31659014166800   -0.16909856675933    0.85369498100639
H           2.50707470662285   -0.04190564854157   -0.64646369031285
