    26
        -50.46482743  Gyration_radius:  2.44812856634 Dipole_moment: 2.989
 S          -0.12029638287192   -0.16954302147266   -1.89627056351448
O           1.27134916696151    0.26551614021090   -1.81843557622768
O          -1.00215320436000    0.74490108677246   -1.19943163601333
O          -0.27341299747171   -1.55412064001109   -1.49813317724435
O          -0.53556264320079   -0.11359397921397   -3.42279404884735
H          -0.19874375510809   -0.94914907832074   -3.72631944697172
H           0.03869101037121   -1.84480859539951    0.05589489016144
O           0.31327063402203   -2.00358844132295    0.99499267577020
H           0.08044497108945   -2.91429942554579    1.18432832781467
O          -0.63132595792236    2.05487212808605    1.14989037026984
H          -0.97045516718082    1.79777487259340    0.27505354085844
H           0.83089926609744    1.89750177378537    0.79878560748682
O           2.69872893499321   -0.79733514575763    0.54950750850371
H           1.95059264759632   -1.32103019007534    0.89169266579473
H           2.57180771716805   -0.78554811667592   -0.40743504502755
O          -2.98453887312719   -0.47959088720446    0.11605496854345
H          -3.74840078358969    0.07586065661709   -0.04763647040609
H          -2.26608263206197   -0.12733505496642   -0.44611910848900
O          -1.34902635115529   -0.20533571643508    2.28588743306008
H          -2.09745269765728   -0.36719901131043    1.68136249539407
H          -0.67346751864659   -0.84211093983088    1.99987507635144
H          -0.89617883494684    1.29814361476112    1.73796525977704
N           1.78404062840009    1.67802886720062    0.32577982457830
H           2.39242749957495    2.48831845185029    0.29908512004751
H           1.56039051658530    1.32388683626252   -0.64354600220362
H           2.25445478642735    0.84978379541276    0.75996532051449
