    26
        -50.47104607  Gyration_radius:  2.54670086327 Dipole_moment: 4.087
 S           0.77905496989131   -0.27347320504205    0.73049957587882
O           1.16529049016467   -1.06776055782902    2.00023955890999
O          -0.69110730498032   -0.33454157759200    0.61150148776255
O           1.20946386824768    1.11331354419615    0.89638279230075
O           1.41616808339845   -0.89677881720123   -0.40976516220030
O           0.15448422900748    2.29164497361330    3.01868433922720
H           0.55286427988578    1.95201039413235    2.18769845659059
H           0.88375977769947    2.62316863653916    3.54536825359624
O          -1.14085805189466   -1.47671902402813   -3.21106095389826
H          -0.95294054983742   -2.05740832762455   -2.42567987825695
H          -0.46199971736260   -1.68323309784288   -3.85561202042562
O           1.56021965175594    1.56095313857695   -1.67407682843790
H           2.04219958281101    0.74254668949070   -1.83753058672865
H           1.54321331801859    1.61682897679174   -0.69361974262639
O          -0.43994066040962   -2.68170620994422   -0.98281524735777
H           0.36965530059831   -2.15512974117981   -0.80766624839134
H          -1.04522526483915   -2.42272076682770   -0.28200905039802
O          -0.84112587479535   -0.17654878204048    3.32988699835016
H          -0.59456711831648    0.76784644608918    3.43353416789528
H          -1.29089518311162   -0.22422892111882    2.47469771035750
H           0.47119381518388   -0.81972243671848    2.68205785181649
N          -0.95767002207641    0.73879356712285   -1.76160071802620
H          -1.07681724334493   -0.06491375714674   -2.44045509174284
H          -1.68569852258678    1.43553068394103   -1.88004072788038
H          -0.97864853090787    0.32942068277345   -0.78109700139756
H           0.00992667780580    1.16282747888313   -1.86752192494540
