    26
        -50.46862858  Gyration_radius:  2.47513239611 Dipole_moment: 4.019
 S           1.44735221545996   -1.59036225309773   -0.64989664619570
O           1.31962546109376   -1.58201046679702    0.78176282362060
O           1.42644462717132   -0.22086867870080   -1.19158765508030
O           0.51754369198120   -2.45348033655082   -1.34853893935744
O           2.89084385801304   -2.15620222527965   -0.99381212031808
H           2.74212410963527   -2.52161163611641   -1.85961405085045
H          -0.90333001155225   -1.98706936816879   -0.75554580839753
O          -1.77128939429341   -1.61918647850120   -0.45696089937558
H          -2.35314725777940   -2.37246026913870   -0.34151511304746
O           0.57845776479954    0.14883892288876    2.66699267157842
H           1.00579973652939    1.09729600532521    1.57905595358904
H           0.90671264039563   -0.65419715054102    2.22074840067035
O          -1.01602695221992    0.53157907684392   -2.00954716675226
H          -0.08627937531146    0.25525195169715   -1.88504759680753
H          -1.53541106352860   -0.20745846582629   -1.65761853944202
O          -1.25596413889334    2.41116118381723   -0.23291663619096
H          -1.70048120998660    3.17733076340449   -0.59591180826501
H          -1.21534728698031    1.73044735950831   -0.96878844068828
O          -1.84603232337679    0.27491339187540    1.56784839188327
H          -0.39152505125174    0.14669667885498    2.49150312140004
H          -1.81988672058924    1.09313889081734    1.05369256191802
H          -1.83758466019011   -0.44666429401873    0.91575440940397
N           1.19829498974384    1.63726111602691    0.64958112391694
H           0.33095830445793    2.13722605189147    0.37593431557124
H           1.38377628392376    0.89926411966613   -0.08842907194713
H           1.98437177273569    2.27116612011147    0.73285672916683
