    26
        -50.46862855  Gyration_radius:  2.47507561609 Dipole_moment: 4.018
 S           2.12919263088809   -0.28074860841553    0.65902568899870
O           1.83277796084758   -1.13005448439080   -0.46201138537083
O           0.98264191434708   -0.20030298260234    1.58007198874427
O           2.63510928299411    1.03377343668343    0.32213012392203
O           3.28770213341148   -0.97999370582397    1.49056181479382
H           3.69740221385436   -0.22642513531323    1.90224038910798
H           1.53222570835848    1.57197095061308   -0.71820447797284
O           0.79479581110502    1.92522366619144   -1.27426584380758
H           1.20959323526149    2.43404315501976   -1.97312806357759
O          -0.56710962675787    1.94229084889128    1.12268172805737
H           0.04391277158343    1.24739624506997    1.43896931498604
H          -0.17679232044396    2.24288090918315    0.28765885134380
O          -0.33299969696787   -2.20245688798703   -1.58375476740316
H           0.59532583093881   -1.97575452778816   -1.38742296277736
H          -0.82659422703597   -1.99850792941100   -0.17663576973542
O          -2.64079167980561    0.54748633813129    0.41518331673478
H          -3.45148197121282    0.94428746476238    0.73405134494315
H          -1.89372269229182    1.14685022477229    0.71392751122905
O          -1.26560514335403    0.24608263647234   -2.06892451122959
H          -1.90347279705857    0.39074754571262   -1.35705250517390
H          -0.50831008972192    0.82145906817716   -1.86559158206879
H          -0.70287495428915   -1.38515627445838   -1.99243757696312
N          -1.07789180049071   -1.64154485449835    0.82442060467879
H          -1.33442467822526   -2.39914499866571    1.44646476323994
H          -1.83942357270067   -0.94146048986155    0.74026780440157
H          -0.21918423323688   -1.13294160046796    1.18177420089454
