    26
        -50.46862856  Gyration_radius:  2.47510732299 Dipole_moment: 4.026
 S           0.50517138877332   -1.94894524302474   -0.99676745993447
O           1.47006858226515   -1.64072985611808    0.02297684559665
O           0.09110101406747   -0.73397800858577   -1.71915115981269
O          -0.63751533184059   -2.72034881566342   -0.55344759926841
O           1.23312919345820   -2.85390654385126   -2.08013503391206
H           0.49666111143858   -3.33785074257378   -2.43890032922908
H          -1.16447063789217   -1.86664260923474    0.70458098811683
O          -1.53292470216915   -1.27796384173575    1.40841053521553
H          -1.83706632429580   -1.85900876178412    2.10783281275774
O           2.35128395247922    0.53438004380088    1.28438305318608
H           1.84056009264778    1.14831929536791    0.00862436354021
H           2.24664592933275   -0.38933774016312    0.98842609815895
O          -2.16674240349220    0.33424562817518   -0.73808271922921
H          -1.44466931657936   -0.09859105886918   -1.23560815667646
H          -2.25950125600382   -0.20084908685026    0.06488922281281
O          -1.02595715396711    2.52851353053702    0.05634017886641
H          -1.53839941502604    1.72563328782091   -0.25867476617070
H          -1.59499802437368    3.28561459854103   -0.08313126128009
O          -0.10018238480744    0.94464353582068    2.24528896635107
H          -0.46144236846833    1.62631916899600    1.66280708365274
H          -0.57253228792403    0.12549448947271    2.01748414017947
H           1.56471645494256    0.69874105934628    1.85537666119757
N           1.28734705576937    1.44889386472133   -0.88368558783385
H           0.49761041878166    2.05507594876873   -0.59023155317051
H           0.87148206863924    0.56110637873553   -1.28693645290653
H           1.88062432434646    1.91117145825225   -1.56266889016045
