    26
        -50.46482514  Gyration_radius:  2.44695438038 Dipole_moment: 2.873
 S           1.79414242539277    0.19984274419148    0.61217236957661
O           0.80259795867228    1.19921213567838    0.95704871930821
O           2.06707593352968    0.19308544556310   -0.82183379109883
O           1.49014183940122   -1.12677813642215    1.10954794818443
O           3.13450402103552    0.62821863765273    1.33729353287073
H           3.55619993543718   -0.21830104921290    1.43403156784162
H           0.11755582793428   -1.76217357593384    0.55012531147946
O          -0.68855148476694   -2.15411901266917    0.12722729069120
H          -0.85268510382509   -2.97714535477229    0.59100763109945
O          -0.90031953402755    0.39709670497239    2.85752407916712
H          -0.19370656132038    0.61708349156837    2.21818505741849
H          -1.01394177855037    1.17386374257693    3.40759300601295
O           0.31484689168026   -1.62053999832089   -2.33461702812697
H          -0.18076054203878   -1.96295426904406   -1.56800444328998
H           1.18473550049111   -1.39282212378900   -1.98211765216487
O          -1.45562765347324    1.91788815308100   -0.36649096257840
H          -0.68992353870382    1.92298833121151    0.23390526539965
H          -0.70035234519799    1.41038379220292   -1.57306924296476
O          -2.54168006309976   -0.19688907255611    0.75713551258224
H          -2.02470893552575    1.18103688126551   -0.01758593329042
H          -2.02543099326984   -0.94471030228727    0.41378163588565
H          -2.15672780961722   -0.02815800783658    1.63766880338834
N           0.03811875854623    1.01102562577473   -2.26318201460674
H           0.15825185895510    1.60094470724143   -3.07863761021932
H          -0.16785520407144    0.01833634813144   -2.52456815995256
H           0.93410062638254    0.91358414172379   -1.71414088262739
