    26
        -50.47201777  Gyration_radius:  2.51746561848 Dipole_moment: 1.426
 S          -1.64764292109798   -0.92247791159315   -0.65862290437565
O          -1.62793012966666    0.33911531957920   -1.36820794645814
O          -1.05407278070213   -0.79979966597490    0.67309457784914
O          -1.07926571119910   -2.03103146121714   -1.39470383225376
O          -3.17390634397956   -1.27324248531091   -0.43231813357425
H          -3.12951582016692   -2.18756020803499   -0.17393164536217
H           0.52783277989996   -1.86418526861482   -1.47450583199572
O           1.49870175775358   -1.67289809956069   -1.49368860002777
H           1.87512754455073   -2.27007873758604   -2.14238745026251
O           0.96643030316138    1.00006527112268   -1.75560880854625
H           0.01510667617853    0.84343179259374   -1.89189282246347
H           1.37148945961675    0.11521199914288   -1.75369334103660
O          -1.99504608535953    2.58200304545264    0.07397534851831
H          -1.96095687413955    1.76763928439780   -0.46715874985202
H          -2.57941351921485    3.18309222823577   -0.38906378209161
O           2.25280516960724    0.62663700451007    2.47609134608460
H           2.20354472529345    0.49153801027231    3.42295200096204
H           2.10130900130304   -0.26034476887734    2.06531663775783
O           1.47430585004268   -1.62502846876538    1.28860724401366
H           1.77207800313365   -1.70915316028198    0.37026441889402
H           0.51561963309323   -1.47887284920164    1.21473537663369
N           0.34786918818016    1.45604644647101    0.78357375625660
H          -0.25021853227758    0.59525717017243    0.84562279459884
H          -0.28141453706020    2.26150225498955    0.85109578871272
H           1.08736675108834    1.40360896057133    1.51482366011714
H           0.76979638201919    1.42952427744956   -0.18436910209591
