    26
        -50.46433448  Gyration_radius:  2.5557456443 Dipole_moment: 4.444
 S          -1.83679707528045    0.81563313142348    0.10138752617392
O          -2.19231325156367   -0.47548063129722    0.67742435929598
O          -1.26929425374674    0.67045562409858   -1.23003766251921
O          -1.01179720222371    1.61277982013422    0.98176202163979
O          -3.19529007714211    1.60755960937450   -0.07721750563640
H          -3.66159248420203    1.06446224658369   -0.70441782323086
H           0.28733133600518    1.18566284302628   -0.96801704537514
O           1.21184181375220    1.38541826748882   -0.69978414089106
H           1.11488295967029    1.99490704258720    0.03603077553538
O           1.66097125696515   -1.23384985308610   -0.11543443080205
H           1.71051180924437   -0.26254023007930   -0.21364719755602
H           1.12984953142035   -1.51636422537547   -0.90720657984401
O           2.10830885345972    0.20659279162298   -3.10976017394421
H           2.94118667715750   -0.18955913281133   -2.84601077393300
H           1.87068955353686    0.83029432289283   -2.40878042826216
O           0.06795296319273    0.75896068893549    3.22531120098645
H          -0.30258479064204    1.17675797587095    2.41339929474445
H          -0.49470949163074    1.04484487612760    3.94637055482341
O           0.10168246209909   -1.47777754162731   -2.21687941707288
H           0.70201535533401   -1.00672550330375   -2.82200377991147
H          -0.54544325765295   -0.80574766400072   -1.94202618708646
N          -0.07609073708926   -1.50425944640867    1.79432902404505
H           0.70238930554790   -1.46034617907342    1.04269997140390
H          -0.98112370791317   -1.20302901330351    1.32787543335994
H          -0.15675529889288   -2.43399572040931    2.19034670875233
H           0.11417776059479   -0.78465412939519    2.52428626529872
