    26
        -50.46031197  Gyration_radius:  2.43513462742 Dipole_moment: 4.436
 S          -1.35728921640256   -1.27461167718894   -0.74115304031426
O          -1.03163018894588   -0.46027602108636   -1.88885295145454
O          -2.07048351832424   -0.56510053199087    0.30594365488157
O          -0.16902929018934   -1.95567498146654   -0.23070231813065
O          -2.35306027105011   -2.40451798251392   -1.22785664396277
H          -2.94791582930904   -2.45637267150391   -0.48751152351934
H           1.25323192370990   -1.44016093575524   -0.84905991201920
O           2.08706299067472   -1.06737553840895   -1.23051102861527
H           2.24373630381520   -1.57008656419504   -2.03153753816751
O          -1.66202321944770    2.03400914045620   -0.43006557206509
H          -1.59245153461683    2.47584902885783    0.41913462774235
H          -1.96492627958599    1.13309233015008   -0.23989559996837
O           0.95288033010809    2.22944005023812    1.08459600884933
H           0.33392848530018    1.61643887597487    1.57666947726001
H           1.79852751388077    2.15852652913954    1.52933586666068
O          -0.53033775274380    0.45749074293044    2.27801402114403
H          -1.18383306569813    0.09913532675687    1.64927311347860
H           0.08856667469417   -0.27806693388874    2.43923600812723
O           1.18718745956402   -1.64910177183220    2.05766796929835
H           0.63746602693355   -1.90236990209230    1.29153185601123
H           2.08326405354962   -1.59118576636011    1.72065807358272
N           0.85528654329174    1.30316640589460   -1.41001028142953
H           1.55041874155721    0.52134518288459   -1.41374368748237
H           1.03640147716925    2.00021112843478   -2.12396674652493
H          -0.07045583878162    0.83247585366478   -1.59589552711562
H           0.82547750083839    1.75372066290546   -0.45129831628739
