    26
        -50.46886382  Gyration_radius:  2.428695 Dipole_moment: 7.698
 S           0.11152523849508    1.39636215956173    1.22327861898811
O          -1.25826185849050    1.21196180818855    0.70611575424579
O           0.80280662179301    2.46917986872198    0.55653786407004
O           0.84917363108793    0.13197014444884    1.09205884003542
O          -0.00387068437826    1.70997532785908    2.73225799662843
H          -0.64632766021459    1.02344185515163    3.04805044592438
H           1.70471864299311   -0.38431013160220   -0.11540381538850
O           2.16045462527715   -0.77404839163393   -0.91307001436023
H           2.95389063274770   -1.19209087453326   -0.57447368820339
O          -1.84001461709114   -0.12860639619826    2.94613748926698
H          -1.50577218933474   -0.99877986145900    2.66879179422626
H          -2.09166692752193    0.30905211931351    2.11845594029534
O           1.29764611775518    1.69497285818200   -1.91711688764733
H           1.20644650861543    2.14663178434233   -1.04519264207136
H           1.89596663752272    0.95024914283914   -1.75689526916225
O          -0.63529274910856   -2.05647754772448    1.36443636268941
H          -0.01359062901100   -1.30322491988860    1.31995962280373
H          -0.76943002098472   -2.32470053233454    0.45092072084018
O          -0.09182883749992   -2.05778142497193   -1.61300882953428
H           0.78586092853214   -1.69376975713405   -1.35281907081216
H           0.07135106037811   -2.71189510486733   -2.29394493440895
N          -1.02094382214468    0.50648926943754   -1.75714056203427
H          -0.10830619093376    1.02172160387286   -1.99083666319906
H          -1.22557622064334    0.79091133244190   -0.74008704111808
H          -1.78135533373651    0.77914052366509   -2.36975957295533
H          -0.84760291409409   -0.51637487566735   -1.78725243912097
