    26
        -50.47014109  Gyration_radius:  2.40824909877 Dipole_moment: 4.176
 S          -1.30885343329731   -0.88300982154540    0.99107199876514
O          -0.96600971423510   -1.90034984298566    1.93419029526115
O          -1.30331877563840   -1.35054397191930   -0.40710592057288
O          -0.37787080697105    0.26870396668507    1.09170037245451
O          -2.72880381977770   -0.33708920685032    1.28942263408293
H          -3.05397138670812    0.04567763244602    0.43161815210952
H           0.93058244866559   -0.76672478552606    1.61944539158370
O           1.70695663937468   -1.36022856149903    1.61287659966458
H           1.39573400281929   -2.13244574157653    2.09418511465451
O          -3.11549370242455    0.45468519603383   -1.15916651517570
H          -2.60214794671703   -0.35486361606844   -1.31103637390163
H          -2.47248105697049    1.17781081125400   -1.25520126615858
O          -0.84125450927626    1.96009154788334   -0.83213148430566
H          -0.69231326612129    1.32514917341771   -0.08447573350847
H          -0.83288998791513    2.83601086109425   -0.44155722982509
O           2.07130407739437    1.55546125725295    0.97944483373944
H           1.16537082985687    1.25971656636323    1.16223183708349
H           2.63904827472185    0.92139345352859    1.42446720387755
O           1.65016431474285    1.13422434635482   -1.64164334396653
H           2.01191816282024    1.42143062738162   -0.77559026939203
H           0.74788120747095    1.50187685758030   -1.65162271582506
N           1.21394238885938   -1.37633015979991   -1.03468667522673
H           1.44109797276826   -0.38357238851316   -1.38198833844523
H           0.15797879490007   -1.43051113666500   -0.88389654740385
H           1.53117899139038   -2.08596687182723   -1.68583789048784
H           1.63225029015211   -1.50059622272501   -0.08471412916083
