    26
        -50.46978198  Gyration_radius:  2.45026099044 Dipole_moment: 1.527
 S          -0.31326749960114   -1.17047838692484   -1.32359838849098
O          -1.05666159436283    0.08188553139214   -1.12502552403597
O          -1.11782638999054   -2.32707417721356   -1.04152283102906
O           0.92336671779641   -1.13366572733761   -0.53410641099764
O           0.09952607856552   -1.22490092715824   -2.83167323098966
H           0.81083316406402   -0.56832317290440   -2.93147965965064
H           0.31796817758143   -2.28115284103668    1.52829732087907
O          -0.62728921406105   -2.45706834578735    1.52587518950854
H          -0.84407178653338   -2.64525822856669    0.58546515541811
O           1.40731816546847    0.95211362776226    1.16182325616721
H           1.22257989648808    1.61062563167637    0.45757165715057
H           1.28999892574729    0.09809955030123    0.71350472629611
O           0.50438839487461    2.27517690460718   -0.99693085443462
H           1.17908603121289    2.06571109854300   -1.65220815028228
H          -0.17503300018306    1.58140547581002   -1.10350578637954
O          -0.62548775451298    1.70413285602725    2.62156122742490
H           0.23681882790408    1.40806486095410    2.21945493952965
H          -0.74012455231206    2.61333946085620    2.33792529665004
O           2.18327783911621    0.35803826479514   -2.26087489317469
H           3.08342349327797    0.09273988910710   -2.45904158209365
H           1.90112483568548   -0.16327884856182   -1.47456881999173
N          -1.95744990942422   -0.16756077750613    1.32752977885304
H          -1.49342270651450   -1.08386239904724    1.58415923413530
H          -1.71029479709902   -0.00260509978721    0.31141572312509
H          -2.96275916338017   -0.22988135183694    1.44753748033262
H          -1.53602218983542    0.61377711178116    1.91241514599032
