    26
        -50.46758735  Gyration_radius:  2.52039785047 Dipole_moment: 5.347
 S          -1.24415115212944   -0.10414058769993   -1.76285089754283
O          -0.33539268989148    0.97368122526158   -1.44365808678153
O          -2.11916783935266   -0.43450770862703   -0.63866304573708
O          -0.58654544771896   -1.28993357043036   -2.28281918927525
O          -2.18334602776281    0.42544392118123   -2.91958818147505
H          -2.57130319702615   -0.37412959981929   -3.26005216110602
H           0.57954497229835   -1.84874573500198   -1.35129071752224
O           1.24875641259391   -2.14930785762423   -0.67954364637050
H           1.66100078470879   -2.93407262893434   -1.04396312201411
O          -1.57799275374561    2.00318877758130    0.67222967118700
H          -2.35180486907964    1.44073885502751    0.57335091091277
H          -1.04779727560404    1.81435851095547   -0.12587928297617
O           2.36281673168360    1.51091867610576    1.65528515411560
H           2.49507389911185    2.45250121796970    1.53676604796317
H           2.39796998235172    1.11727207567882    0.74952528552146
O          -0.04700577751785    0.81543414694420    2.50834575118917
H           0.88038855016782    1.08769514960393    2.30431560989226
H          -0.62074167057674    1.40381235154334    1.96401334288559
O           2.23598808120856    0.47392479144795   -0.78638452343463
H           1.37431969595756    0.77996903133720   -1.12178234352626
H           2.15512371536610   -0.48837216455714   -0.73120742233930
N          -0.53677022735135   -1.36055277679473    1.24570278574890
H           0.27902527861152   -1.72782141708958    0.72952356793041
H          -1.24258645744575   -1.03991290450173    0.52614174519138
H          -0.93697687937583   -2.07972072068222    1.83862517870975
H          -0.26842583870147   -0.46772106784647    1.84385755894547
