    26
        -50.47115285  Gyration_radius:  2.41912968209 Dipole_moment: 2.761
 S           0.27388327068480   -0.57682526161229   -0.88255774555702
O          -0.66940033167205   -0.98033095858638   -2.04705119532032
O           1.51282985306252   -0.03817535977025   -1.40648083195637
O          -0.43129302792582    0.43340013508713   -0.08529601706203
O           0.47286404177658   -1.79911556473083   -0.10690232656493
O          -1.95529156705217   -2.30385425612667    0.88944741200291
H          -2.57973508538198   -2.37493862995593    0.16619583504070
H          -1.07349494490156   -2.23181178944176    0.47335739195363
O           2.34574626091404    1.07927997742137    0.83570625670742
H           2.18287996244673    0.64370431261361   -0.03229962502186
H           1.92731249467538    1.94219824871639    0.77387522946679
O          -1.37902997117076   -0.09091722469129    2.35373293337474
H          -1.20796245749455    0.33697334955464    1.49186600894366
H          -1.81350379042400   -0.92659586804624    2.09902860938927
O           0.45468102211149    2.48109989032531   -1.48706709745360
H           0.05842714934797    1.86377866641206   -0.83723303974447
H           1.24383541062434    2.01806826806018   -1.79411926020504
O          -1.22756575338402    1.30175980585393   -3.17673902764299
H          -2.11855179003659    1.56975030986287   -2.94189764231272
H          -0.61782584619673    1.90207974051021   -2.68307597104887
H          -0.87528852448676   -0.15786322493149   -2.57021573275873
N           1.11695321293226   -0.82814844705087    2.23304742510713
H           1.67508726598332   -0.00423689858707    1.89366286835957
H           1.59209423284553   -1.34274400954229    2.96628797318264
H           0.12913700812623   -0.50622240107785    2.50867691444832
H           0.96321189462447   -1.41031281026241    1.36605066468974
