    26
        -50.47250306  Gyration_radius:  2.48717388523 Dipole_moment: 2.879
 S           0.96447200996868    0.02746870910196   -2.05232845196506
O           0.44732242425989   -1.06574250404039   -1.25151705378094
O           2.02611367546673    0.75210215472352   -1.36448244281703
O          -0.06693858395738    0.91675196546399   -2.55156032179590
O           1.62836389461171   -0.63676364238127   -3.32825388137477
H           1.79813385337106    0.12957926825430   -3.86531622041573
H          -0.97883339627353    1.51051388627119   -1.38720307171728
O          -1.57597276314353    1.82071247650703   -0.65694080728235
H          -1.95531144006711    2.64705387661866   -0.95963341154894
O          -1.47786868514831   -1.18749127717007    1.99915090796724
H          -2.16804058218028   -1.64110256401012    2.48328456146316
H          -1.78549548068463   -1.13733017209362    1.04766462001750
O          -2.11464910901124   -0.90718769896999   -0.51098537241792
H          -1.23837369371505   -1.07786248712579   -0.91124450759316
H          -2.24249984379386    0.04778072354698   -0.60885196492514
O          -0.53321940701775    1.39420289506890    1.83334841860275
H          -0.94353051913503    0.54119822874395    2.06400563103216
H          -0.92648675218456    1.64530118178271    0.97618146910425
O           1.01436351493780   -2.04947186498232    1.19766682570258
H           0.85554630990959   -1.95806608075162    0.23996837997211
H           0.14061850703117   -1.91572486762144    1.60847816995409
N           1.85130298493310    0.44169198662773    1.21806851922507
H           0.96579429148840    0.94375652116272    1.52225057913672
H           1.98961344159159    0.61169480194477    0.17975895686041
H           2.65921497131203    0.74764693325412    1.74770784238094
H           1.66636035742990   -0.60071246992518    1.33078262621489
