    26
        -50.47083182  Gyration_radius:  2.45227209422 Dipole_moment: 3.517
 S          -1.74068892411134    0.41741768278987   -1.07906452759441
O          -2.21108056221971   -0.44624360041713    0.00163458305965
O          -1.15904274881007   -0.29678298394366   -2.18363746205031
O          -0.86635337636807    1.46119387666102   -0.54773986998924
O          -3.02236314105904    1.15624523013379   -1.63942854539585
H          -3.36874559655361    1.62224405605169   -0.88479073272190
H           0.57516905108702    0.95006458031587   -1.16566339101048
O           1.40088156408041    0.51749155867922   -1.47942949397420
H           1.16990182782743    0.17494797017342   -2.34711612169309
O          -0.71825445981736   -2.65237105307632   -1.03322411664879
H          -1.50167130419113   -2.66962546929068   -0.47801694636048
H          -0.85917759886622   -1.88132896726217   -1.61801461059380
O           0.41074270923525    1.99503911817181    1.79091656884327
H          -0.07189625300993    2.10417440643822    0.95356820384889
H           1.35370587166919    1.92166753640948    1.53613852556994
O           1.41681415199260   -1.61708869737490    0.20170991482896
H           0.77911772336493   -2.20867971640232   -0.25426884256201
H           1.55253610020089   -0.88212278850195   -0.43200603722946
O           2.82265715776981    1.26959640459889    0.77644008694356
H           2.53524877575080    1.19707021535493   -0.14534298084317
H           3.10215238954576    0.38809721653618    1.03426035641105
N          -0.32429023341539   -0.51697485259875    1.83046666488807
H          -0.02978473849281    0.50017279363429    1.98174659537399
H          -1.15828387943639   -0.50463513383472    1.18271285199443
H           0.45489083276142   -1.01471748151733    1.29534642126697
H          -0.54218531892718   -0.98485188172639    2.70280290564532
