    26
        -50.46530191  Gyration_radius:  2.4248444894 Dipole_moment: 2.948
 S          -1.22536480561803   -0.23350877572812    0.60262659734443
O          -1.99088441986758    0.09382081638622    1.77684200311118
O          -0.32411657666482   -1.37893311695169    0.83361437390926
O          -0.44201107364170    0.89972380326849    0.10971834375952
O          -2.18931188574347   -0.68509309447508   -0.53283525111577
H          -2.10981855119908   -0.10792177514194   -1.34179140149556
H           1.23541479756087    1.67776896952521   -0.02065051577553
O           2.19488412812331    1.52379553269975   -0.06903258975194
H           2.33078310845910    1.14965093275630   -0.94737874800973
O          -1.84683429586227    0.55221768805490   -2.80408607091599
H          -0.86083799629459    0.51111574061105   -2.78212578294648
H          -2.13391783740222   -0.02298790846269   -3.51609838286493
O          -0.16716819079760    1.39158471267693    3.10058149011735
H          -0.21886050911077    2.26830865387255    2.71322146665602
H          -0.93864856646562    0.89827671873898    2.72276423807282
O          -0.01283513704321   -2.48289134049960   -1.54996744998591
H          -0.10524409249900   -2.19483426892351   -0.61771311951370
H          -0.87525396318525   -2.82163926669436   -1.79615800376638
O           0.68351538944747    0.07537319441132   -2.14600864028289
H           0.61978711037056   -0.89735507048321   -2.10606612735099
H           0.30156049082989    0.38639213420846   -1.29837977869649
N           1.65271119435755   -0.13485768124025    1.94726264978503
H           2.08780652192020    0.44684863049685    1.18584347509769
H           2.33863214934469   -0.64458772434802    2.49346418517005
H           1.06147071522870    0.51160619865304    2.54605931583965
H           0.93454229575338   -0.78187371340775    1.49629369361334
