    26
        -50.46928140  Gyration_radius:  2.56407865354 Dipole_moment: 1.196
 S           0.29156510704346   -0.40623532062802    1.34688012514765
O          -0.86988115301545   -1.00291449189022    0.69526076368939
O           0.07309520500930    0.99094593968725    1.65337256976505
O           1.49907713300116   -0.59253237271237    0.53069914974808
O           0.50240908082990   -1.19950679170466    2.67393678025115
H           1.41622925102527   -0.98532499172981    2.95346357227966
H           1.42722722188804    0.79897564118593   -0.43665212793974
O           1.13902509757090    1.62603727627122   -0.87500296446066
H           1.03608497620763    2.25407348705087   -0.15341806551413
O          -2.03380166515820    2.41049870159274    0.79041190402235
H          -1.27229172913807    1.92299535005240    1.16852026292444
H          -2.48697720021505    2.80470902391186    1.53604094164423
O           0.16994084173071   -2.16396202961977   -1.48356019109490
H          -0.28203345491057   -1.93618793885492   -0.64871859517185
H           1.06478579234847   -1.83474224045175   -1.35957154151144
O          -1.48006448621438   -0.97507606436881   -3.23417497274647
H          -2.17295321245108   -1.60457880310385   -3.43806949124322
H          -0.80292812934145   -1.47444860575665   -2.72120236330917
O           3.07905614439777   -0.60553214704688    2.63222451393690
H           3.69542572180940   -1.34128211834813    2.61801101943631
H           2.73495235805736   -0.51040357745468    1.72146092293692
N          -1.37114414578424    0.77607873029740   -1.21892995277592
H          -1.60666367353402    0.29523913059399   -2.11373517065144
H          -1.31983996392540    0.05501548993069   -0.45685332483100
H          -0.40540273159474    1.19657399976582   -1.26932090688049
H          -2.02489239565384    1.50158472331918   -0.91107284764919
