    26
        -50.46293855  Gyration_radius:  2.57490526511 Dipole_moment: 3.756
 S          -0.77173721953030   -2.14000829149345   -0.20685537403281
O          -2.09517762904732   -1.58629771268126   -0.30796507397304
O           0.00402921458332   -1.51040113317870    0.86883443012862
O          -0.02255427898427   -2.12104424199802   -1.45580399959315
O          -0.91212730380721   -3.66691089720977    0.18704028293240
H          -0.03077149501036   -3.98604196302735    0.02295608752980
H          -0.13115176723064   -0.72055558508897   -2.14242729980261
O          -0.16217995165515    0.18209747978644   -2.57287555568100
H          -0.05340116747698    0.01595312005721   -3.51096540603876
O          -2.42703619080179    0.94635866121552   -1.05637598192254
H          -1.80811213611490    0.88768993765094   -1.79897263770962
H          -2.57950965062484    0.01289841752369   -0.80635605399328
O           1.56908353219273    1.45759050363254   -0.98532392875076
H           1.86633663073673    2.26546049504076   -1.40608614663531
H           1.03231506625115    0.96756458433204   -1.64899583940237
O           2.22218341421801   -0.01542360174457    1.48482855012504
H           1.56234644430937   -0.71392363009753    1.33786930857338
H           2.33715062869601    0.41265731146236    0.62868418799069
O           0.75948488218889    1.64922320465523    3.05562303061279
H           1.41664235658552    1.08804096062440    2.58635186812038
H           0.73673809191825    1.33199441627504    3.95862079891069
N          -0.52348911037484    1.07377608307454    0.76674622745316
H           0.28346579615037    1.39509609892911    0.20121068287741
H          -0.40786275080424    0.03077366565530    0.88033879625850
H          -0.45674039304197    1.50809360325095    1.69947481912253
H          -1.40792499325041    1.23533851326466    0.22042422696994
