    26
        -50.46610877  Gyration_radius:  2.45391286424 Dipole_moment: 2.281
 S           0.05942643718731    1.27521635931260   -0.34328625462981
O           1.32819923869472    0.83595364726040    0.21973695104918
O          -1.00298432821148    1.26057120606043    0.64278628776484
O          -0.27261619604071    0.46913200100369   -1.52374839810887
O           0.21522946180186    2.75237834283640   -0.81494513109877
H           0.78251675488672    2.69279513245484   -1.60875578222071
H           0.77527940624036   -0.91810267224393   -1.10191808807983
O           1.23072621270478   -1.74953377395914   -0.89034179936710
H           2.16513855941922   -1.54232038164137   -0.93875791008297
O          -1.54344152526657   -1.98947438351901   -1.60048015510379
H          -1.29543118588135   -1.06816542982046   -1.77713353240205
H          -0.71043596349312   -2.47367381094906   -1.59808429327574
O           1.30502192402865    1.88909950328418   -3.07017534572646
H           0.88349299472393    2.17304604629135   -3.88445070708363
H           0.74867144522279    1.17474445612865   -2.70066107764459
O          -1.73244872484640   -1.32908524488785    0.98385195810665
H          -1.79846502746641   -1.71999177316881    0.08317656902755
H          -1.74942653679345   -0.36584347504257    0.84153055496661
O          -0.49265845678821    1.05620154683778    3.26429260492231
H          -1.35506933287380    1.00396157450529    3.68089918376075
H          -0.66341379405196    1.31253866972198    2.33317113552342
N           0.65138424623939   -0.98043298269599    1.97895159019384
H           1.28743651903258   -1.72362190435811    2.24394481365410
H           1.07229202614104   -0.33585819630492    1.25015943796607
H          -0.26756916951700   -1.34440647516292    1.56295167975346
H           0.37914503491461   -0.35512798194094    2.76728569812405
