    26
        -50.46393316  Gyration_radius:  2.44792374902 Dipole_moment: 5.865
 S          -1.46823550797556   -0.09492366365338   -1.24991773099970
O          -2.26661799523176    0.24550876434744   -0.09157486698505
O          -0.71843992001368   -1.33056442330144   -1.08602138690100
O          -0.61471614439435    1.00287124049318   -1.67374337943154
O          -2.48454780538575   -0.36296677199183   -2.43166848128364
H          -3.04409470184832    0.39854264846609   -2.33472922801602
H           0.58153094047889    1.60409498863813   -0.86362741333173
O           1.33710275755153    1.97068267062288   -0.32141970996434
H           1.81906058318591    2.55012305666131   -0.91346667563257
O           1.76918640532764   -1.56375996539424   -1.86335337063946
H           1.85716701007332   -2.49838144073650   -2.05892743565460
H           0.80416483959187   -1.41856324976582   -1.70607953925713
O          -1.71286918974277   -0.22713944775425    2.60175797246694
H          -2.25722275528508   -0.25091840835127    1.80100064121518
H          -1.37215372042599    0.68214861640111    2.61182405121971
O           0.14962419553310   -1.66970034967219    1.42161909345908
H          -0.49456903212905   -1.19103686864855    2.00437152728007
H          -0.28636511950128   -1.70892844503280    0.54735628995849
O          -0.92940953589283    2.12308600841386    1.41515910217774
H          -1.45967515877216    1.61589763185518    0.77771001408698
H          -0.09570623929737    2.31272676201078    0.97182190613512
N           2.21038606564286   -0.42864156768956    0.50630990399189
H           2.25575071327564   -0.91660221279725   -0.42308098770668
H           3.07820939865692   -0.50421688872810    1.02393133300440
H           1.96229716626296    0.56723025174863    0.30599950232137
H           1.38014275035798   -0.90656888616200    1.02874887847395
