    26
        -50.47328334  Gyration_radius:  2.39693371079 Dipole_moment: 4.190
 S           0.33102121073032    0.06863398336649    1.67954912787107
O           0.69955044406028   -1.28137041802327    2.06115850392466
O          -1.01502024392904    0.10377094176942    1.10420543700728
O           1.29996237522916    0.64419138792797    0.74190240516188
O           0.32264816369530    0.95406783269508    2.95242797985938
H           0.26645455967568    1.86730776975272    2.58284212166990
H           1.65681481356237   -0.09592010540346   -0.60544342576806
O           1.83739348501251   -0.61664983739712   -1.43622766422927
H           2.71661303978620   -0.36310083127669   -1.72085253191664
O          -1.46277681825857    2.09767140412789   -0.49374767290029
H          -1.31418594719083    1.34072363235865    0.12811347281638
H          -2.41143341731249    2.23351370148886   -0.52634860827277
O          -1.78573501846471   -1.64401826197367   -0.76576815531692
H          -1.74960960714669   -1.05603689150845    0.01444599979764
H          -1.54620541123577   -1.05005360877068   -1.51865338244380
O           0.36974760779493    3.05302094503301    1.37925041479895
H           1.01261785170646    2.45355433924975    0.96771833236443
H          -0.37133557462417    3.06915384413330    0.75284410116949
O          -0.71578479886615    0.17532625818590   -2.38555897797173
H           0.21928871442599   -0.02147572423030   -2.23189368946420
H          -0.90940508317541    0.98123350503214   -1.87657405537440
N           0.52628588698114   -2.62064222152319   -0.16819680466023
H           1.17124915281070   -2.10321243733962   -0.79229895901010
H           0.70581948967613   -3.61841973014784   -0.17040761296162
H           0.63462590562161   -2.19993224515637    0.80399219509576
H          -0.48860080055476   -2.37133725238359   -0.47647854124070
