    26
        -50.44483756  Gyration_radius:  2.51297116534 Dipole_moment: 4.677
 S           1.69900433999747   -1.08938156957476   -0.80434484092985
O           1.11777742901121    0.20871880724070   -1.08172364132266
O           0.94282909194863   -2.19949525323943   -1.32841611295545
O           1.99051581273281   -1.25168991644083    0.62775412743741
O           3.10699086182410   -1.11125822215294   -1.52454243213843
H           3.33149518019335   -2.03282273744353   -1.45320776860860
H           1.09837973527551   -0.83573645469945    1.59565769990972
O          -1.81255485353713   -0.16902500051396    1.10606048911880
H          -2.55253783086036   -0.55979172883405    1.57162839405890
O          -0.32937896893128    2.04710378654520    0.21949358850503
H           0.27887035199249    1.48143065733697   -0.29638691766437
H          -1.07259337628725    1.46847491650222    0.44165795965796
O           0.90988238066827    2.03386589625314    2.51953931542717
H           0.51736073655610    2.21575480233503    1.62167106128067
H           0.43308931215997    2.57740255079642    3.14853345794953
O           0.38884157237665   -0.45992982364311    2.31208034648938
H          -0.52508164675428   -0.38521566744581    1.81911552974424
H           0.68035575971748    0.50225275025199    2.49968043841483
O          -0.88770034464980    1.01523343142942   -2.73298285053529
H          -1.02506713790675    1.89502699256737   -2.37386022217477
H          -0.05378359166038    0.70509204229733   -2.33840061501916
N          -1.67040226818218   -1.25737809074335   -1.16623959300970
H          -0.75201046641637   -1.70724257227661   -1.23353105548121
H          -1.76911391857955   -0.65376045500747    0.13822948311191
H          -1.66872650030271   -0.50504973702750   -1.85754088594491
H          -2.37644166038537   -1.93257941451050   -1.42992493531517
