    26
        -50.46591326  Gyration_radius:  2.54482489837 Dipole_moment: 5.763
 S           1.15827661560949   -0.59592575864045   -0.43952059238099
O           0.62669347957341   -0.08894891243524   -1.82367316000228
O           2.59444298411486   -0.65044488140338   -0.46557915028916
O           0.66420318316986    0.41353783666791    0.53282972941102
O           0.48954215640114   -1.86527304151201   -0.22892750530725
O          -0.29092554617417   -1.30296725389443    2.34323719089014
H          -0.12381309441333   -2.03477798149760    1.73629665780618
H           0.15780583749413   -0.55768346418984    1.90189770668965
O          -2.74526179747503   -0.32601046349669    2.25535754932083
H          -2.88942847478214    0.17378090276242    3.05991122179338
H          -1.88255177537385   -0.80029012344728    2.38023707180023
O          -1.85364427584652   -1.85588448513653   -1.35785653126574
H          -0.90702251367738   -1.95011002411055   -1.08754591931360
H          -2.32493040501131   -2.57089287345289   -0.92466604147602
O           3.03784100718179    1.85273981566989    0.18845196880328
H           2.30445924899123    1.91414261472087    0.80807804384746
H           3.10636548540833    0.89052704437853    0.00423490923288
O           1.93208515294858    2.12433509261917   -2.18261976647583
H           2.38049259458020    2.18028835375071   -1.29725134950732
H           2.63301474571428    1.97391131829644   -2.82052166302596
H           1.09480065249432    0.76833792102380   -2.02581911379816
N          -1.85194498876903    0.48771475237757   -0.12120695601011
H          -0.81206019363948    0.55742000177022    0.11541241106579
H          -2.36417509302876    0.32047396261117    0.78005682870315
H          -2.17132762582616    1.31846942967883   -0.60708494842711
H          -1.96293734971207   -0.37646979293251   -0.72372858213251
