    26
        -50.44675704  Gyration_radius:  2.43706458739 Dipole_moment: 4.945
 S          -1.20762498741162   -0.65216360813534    1.43360095943534
O          -2.60974785843310   -0.48629824287881    1.63785753537612
O          -0.47267726990143    0.57242084575106    1.24886679483370
O          -0.96664609141871   -1.54718529616446    0.17266406221705
O          -0.58123169513645   -1.49125958239092    2.53737813783989
H           0.38963674568688   -1.61236592632497    2.22701880948483
H          -0.83696750671781   -0.99569773530359   -0.64076866883285
O          -0.81095129524475    0.01365367812421   -1.93817387690648
H          -1.21175958769593   -0.44699508763581   -2.67854591778094
O           1.77017632057324   -1.42033571404010   -1.25576243534678
H           1.05234888821915   -0.90176896292739   -1.63011521950378
H           2.42639717050643   -0.78883291345110   -0.93399563948982
O           1.71671717754617   -1.67354180737297    1.50475693842045
H           2.14484124534631   -0.80603135995771    1.37166520135981
H           1.56855552224950   -1.99679181614202    0.59835795923503
O           2.92912644831815    0.56115409659861    0.42645459340296
H           3.56023476031768    1.11933992255017    0.88128962093418
H           2.23269602904380    1.16017558138040    0.06741802367843
O           0.87675532328807    1.94540396038118   -0.57473409159120
H           0.52442260934714    1.51283283888253   -1.35909455204949
H           0.33721011299318    1.60111478274269    0.16206973048959
N          -2.66067795009665    1.31904961621177   -0.62935584050969
H          -3.56385076153083    1.56028271647577   -1.02039436244687
H          -1.54087124370144    0.58352666955794   -1.51927892047907
H          -2.24885635706970    2.16718582701892   -0.25784334053039
H          -2.81725574908226    0.70312751704950    0.16866449875788
