    26
        -50.47201732  Gyration_radius:  2.51774733528 Dipole_moment: 1.410
 S           1.28854044533621    1.40141235736039    0.61454560738291
O           1.76032190709519    0.17800685635081    1.22802791404448
O          -0.16704824744594    1.40199536168808    0.46541425554619
O           1.95060480778586    1.74148593647175   -0.62637140195187
O           1.62901161869279    2.56166050768661    1.63495165362988
H           1.49882079091182    3.33797431913820    1.10099844562647
H           1.47384706062798    0.73121433266054   -1.79613716945615
O           1.14583403767924    0.05766812945682   -2.44296075278980
H           1.71695680798738    0.12466875592889   -3.21004896814243
O           1.17694458776434   -1.84286905101689   -0.47318686505277
H           1.63834124283401   -1.25481562617594    0.15084862898360
H           1.17081147734187   -1.36109112916249   -1.31880333627813
O          -1.45055995130977    0.89386526585178   -1.89011695154984
H          -0.67912023564758    0.51743961789075   -2.33976609329373
H          -1.08796290031684    1.26690665571688   -1.06838216930045
O          -3.14244146380075   -0.92418753029525   -0.93166288123509
H          -2.58024570002075   -0.27318469130950   -1.42011280697188
H          -3.98931368553807   -0.49651177498174   -0.80094892006041
O           0.21254873879282   -0.95656354125988    3.11588629876489
H           0.75292599072136   -1.27867991630037    3.83801400696256
H           0.82326074052959   -0.49605865360202    2.50581916044096
N          -1.05674137798175   -1.08761388459009    0.74252427018103
H          -0.79402480678471   -0.07174090579112    0.70515782325959
H          -1.02855072367669   -1.36670645117658    1.72785626379565
H          -1.97474276776836   -1.21376793194798    0.26728965160853
H          -0.28801840383008   -1.59050701861278    0.22116432580667
