    26
        -50.46591327  Gyration_radius:  2.54474808649 Dipole_moment: 5.763
 S           0.39380485429900    0.83103078259267    1.02207907748794
O           0.86060354079487    1.74131979962284   -0.00561529994522
O           0.14239117508482    1.42537757421893    2.30656551468460
O          -0.77988474102166    0.06137892167799    0.53347391227077
O           1.52944202279491   -0.24086607261756    1.15243610287507
O          -1.54840485292622   -0.37943738005020    3.18635915295565
H          -1.97333670457435   -0.52547424180959    2.33566989122397
H          -1.00761300072398    0.42725413547312    3.04041234165772
O          -1.49559374767961    1.74094051333698   -1.41655768866409
H          -1.49837191482621    1.13084352152459   -0.65537142195541
H          -0.69269323294113    2.25559314637816   -1.26714143439072
O           2.34586669591194    0.48031195570986   -1.72866001100708
H           2.34918440812529    1.05357839159646   -2.49831802016271
H           1.94780455312331    1.01118878197352   -0.99531053425581
O          -1.30748837180764   -0.08485064421200   -3.31851172985511
H          -1.40404877317055    0.69964099126848   -2.71850932117421
H          -2.19699151792828   -0.32849617011522   -3.57797955561394
O           0.67971237608482   -1.77200411120765    3.06673241588174
H           1.26418251985267   -0.86797385164438    1.88139309758817
H           1.16385260890975   -1.56617983816440    3.86930473720911
H          -0.22368049355395   -1.37523909675962    3.18737102880465
N           0.29241024524765   -1.17697458203343   -1.48678038137370
H           0.45345319923100   -2.17205178312725   -1.37677383732358
H          -0.16153076000039   -0.76274610301432   -0.61244732722834
H           1.20274527743457   -0.65343126379551   -1.62601000089383
H          -0.33581537584108   -0.95273339691502   -2.29781068891439
