    26
        -50.46052956  Gyration_radius:  2.53721847843 Dipole_moment: 5.265
 S          -1.43638454721971   -1.52827723992913   -0.40006985522005
O          -1.76962338035367   -0.38479419072701    0.39997225754450
O          -0.76921601073960   -2.59469090941627    0.34267475443836
O          -0.66574598934031   -1.17154565119326   -1.59357824027255
O          -2.78861259433000   -2.16648082568106   -0.92472526125020
H          -2.53265476050201   -3.06448096138596   -1.11065565371857
H           0.87486162803842   -0.87708525566280   -1.22170856777214
O           1.80791052156512   -0.68228213730554   -0.94460572469402
H           2.37055542280773   -1.05580539816384   -1.62481336238867
O          -1.12182996944955    1.41622798212942   -2.14433991496051
H          -1.34455336264261    1.41429457043958   -3.07654155997373
H          -1.06820465727767    0.48008176364160   -1.87193953226393
O           1.27197844497992    2.07750223789825   -1.02984737216265
H           1.61341630995081    1.17303173170778   -0.98004458393111
H           0.39740170052896    1.99455196707417   -1.45634139865290
O           0.57491779437541    2.83829131493655    1.41340347849518
H           0.91327812042462    2.59285451146836    0.51653130698542
H          -0.11767710648130    3.48272923139622    1.25994098368269
O          -0.39886719152339    0.61109282365022    2.46027243177895
H          -1.09326870828081    0.37622011924026    1.81367339769537
H          -0.03031046986656    1.47746948890710    2.15269384752901
N           1.09505259609657   -1.29230960995898    1.62131245874114
H           1.64710730749336   -0.96405144925294    0.81390717651785
H           0.35143949843998   -1.93045452158769    1.21511002649713
H           1.67416800417645   -1.77435532956273    2.29971490634162
H           0.54486139922539   -0.44773425259263    2.07000399104225
