    26
        -50.47230090  Gyration_radius:  2.4336369298 Dipole_moment: 1.651
 S          -1.23544431174229   -0.94645236150487   -1.41650789397782
O          -0.46966466777567   -2.01548457653898   -0.79268577245491
O          -2.56211468654878   -0.79090375572976   -0.86935787348215
O          -1.44117315343435   -1.36585514627049   -2.93604924811906
O          -0.46914187815382    0.29006882541008   -1.45222775337304
H           1.07182914357635   -0.26618373950506   -1.23065630924751
H          -2.29485122700069   -1.78373292169247   -2.90117537770284
O           1.97427435696334   -0.59937503344129   -1.03247182504403
H           1.88926243945667   -1.55221203575007   -1.11711001785403
O           0.96025692115462    2.51473351091815   -1.37011233945572
H           0.30689895170428    1.84025433274837   -1.63153508994203
H           1.81504995954578    2.11745471182403   -1.55907927888157
O          -1.82685592942670    0.46425365260079    1.33815145511285
H          -1.39945030645071   -0.31304281603327    1.73627654266625
H          -2.21796519283714    0.12680315997146    0.50609769933975
O           1.91399183568759   -0.09378681623480    1.59645639098367
H           1.24829918687777   -0.75852409130598    1.84412142408673
H           2.11655166486395   -0.28463085478105    0.65177553715496
O          -0.26630214069849   -1.75998978813849    1.77450942980264
H          -0.47951038155589   -2.60453284240292    2.17364631043933
H          -0.33366963277860   -1.89594583821213    0.79215139298343
N           0.34076015992206    1.96417142570130    1.18934191144526
H           0.56803313448594    2.31091753470241    0.22488865916088
H           1.05582538636220    1.20977015370581    1.44551928272024
H           0.33672288492566    2.72185317199334    1.86262380663259
H          -0.60161254717183    1.47037216800678    1.17340893694131
