    26
        -50.46870531  Gyration_radius:  2.48862617085 Dipole_moment: 3.887
 S          -0.91082613805510   -0.44806380195410   -0.66641119684540
O          -1.12234766862185    0.79007842973433    0.08883162360513
O          -0.79724033933724   -1.59077770986237    0.23076840186783
O           0.25734292550869   -0.33468701262321   -1.53693926634522
O          -2.16189247104185   -0.70810505708167   -1.53318956719208
H          -2.30963589073443    0.08676767631621   -2.11427938645645
H           1.53717628099418   -0.16640709807820   -0.61302017569360
O           2.30949314997248   -0.03499077777192    0.00124335035320
H           3.04287826767612    0.24055125087580   -0.55153450780800
O          -2.51180268351881    1.47877547816919   -2.89967514621416
H          -1.65411878543239    1.92743712865371   -2.68911212562984
H          -3.20077611015381    1.99951027636524   -2.48156915592013
O          -0.20951108448712    2.27902223663306   -1.90213296712476
H           0.27691309776970    1.48108279735943   -2.15734904459389
H          -0.55849649327016    2.03875313817475   -1.02344932011536
O           1.86431317827260   -2.46657646364253    1.17785665538655
H           2.25068105928843   -1.66476731786627    0.77993545284253
H           1.12011754889315   -2.68628058198090    0.60367997015611
O           0.76012206714621    1.24942901131736    1.88674986098942
H           1.51858119999206    1.01059884240112    1.32754122379049
H          -0.00174366294195    1.26369732617756    1.26543899283656
N           0.08844979159474   -1.15429528151944    2.61585631635043
H           0.92400430480777   -1.75624729673423    2.41665640316034
H          -0.50606057314883   -1.31823868778834    1.74766827954683
H          -0.38823960276064   -1.38909648630571    3.47811044704020
H           0.38261861158004   -0.12717003897657    2.54832487200579
