    26
        -50.47045012  Gyration_radius:  2.42911819153 Dipole_moment: 3.185
 S           0.88401075278742   -0.16956067651503    0.33643490719962
O           1.75829982353126    0.86370568535852   -0.19212281153395
O           1.03526053294622   -1.44405719413260   -0.33991423045256
O          -0.51493806931874    0.27888876140219    0.34542936051067
O           1.26388858015363   -0.44633130747191    1.82062900420774
H           1.27469982773011    0.42340813501043    2.31503653766564
H          -1.29525641354333   -0.96013138978146    1.17126059767633
O          -1.60499176236181   -1.83801029685683    1.48241149700577
H          -0.93614863628018   -2.13350183107406    2.10334426279475
O           0.79164483113890    0.60363359562951   -2.68799763996379
H           1.17621639654761    1.32806497682423   -3.18593562852454
H           1.21512272776594    0.62494253107266   -1.80971277947247
O          -1.75766330226856   -0.01320072948448   -2.01083238753321
H          -0.96213252428979    0.20756871946054   -2.52983692426467
H          -1.51911166760063    0.28459768959842   -1.11192036921364
O           1.31432653503982    1.89375005211501    2.93384687954021
H           2.22628212455449    2.18825173007933    2.98485290957203
H           0.89463024717223    2.42282552298368    2.20815045024098
O           0.33646028446464    2.90556820058222    0.70233868542990
H           0.95832644115993    2.30717776608362    0.24010176559125
H          -0.51443852185299    2.46140852812330    0.62463447905893
N          -1.22809787804449   -2.40059926280055   -1.10352307382165
H          -1.31853336646981   -3.26356552099931   -1.62664999913697
H          -1.60832493275308   -1.54306031567328   -1.61732435166833
H          -1.65739452084312   -2.44465007447144   -0.15568962164262
H          -0.21213750941152   -2.13712329494832   -0.89701151923556
