    26
        -50.46347133  Gyration_radius:  2.59451911877 Dipole_moment: 0.794
 S          -0.52997727373615    0.45596386646169    1.88257100411029
O          -1.05526371926975    1.49873133169872    0.99765090902476
O           0.89852983891065    0.51579499201229    2.03217168605612
O          -1.00697092740132   -0.85753888626455    1.45518663181209
O          -1.16532728402892    0.72789557120330    3.30671153734033
H          -2.10790110313924    0.71983718640481    3.16250370590155
H           0.40177070690354   -1.45082319634342    0.81828173988327
O           1.22923478461254   -1.56627534813368    0.29556253714963
H           1.90819381089277   -1.16771410901660    0.84773391169013
O          -1.99426754164405   -1.53735222601938   -1.09842847311896
H          -1.47469707912520   -2.34355277636706   -1.27777912983761
H          -1.91093516939144   -1.38842464967264   -0.14272053024253
O          -0.07679119256333   -3.49192959575005   -1.21957058406577
H           0.57161560227361   -2.93182051160750   -0.76599792959182
H          -0.17750822892583   -4.28110026130796   -0.68501222766017
O           1.25662317752134    2.77642195575832    0.49188675173378
H           1.66573721398980    2.12562815595517    1.07700861174119
H           0.30876301255549    2.64543420237864    0.66184584249158
O           1.32407434105436    2.33431561336964   -2.16202933878963
H           1.18323607155232    3.16316785744816   -2.62050389715048
H           1.43447599637938    2.56274528766633   -1.21022270803282
N          -0.13124579921848    0.30591243037280   -1.20426700304374
H          -0.91181723919643   -0.32011009902024   -1.53145267242357
H           0.60039385069615   -0.31859694589433   -0.81290643966453
H           0.28903825203740    0.96128735582812   -1.89011132775793
H          -0.52898412171546    0.86210276884454   -0.40811261757578
