    26
        -50.45693147  Gyration_radius:  2.63280393869 Dipole_moment: 4.724
 S           0.34964187119725   -2.14502788177426    1.60732421315203
O          -0.42736708490015   -1.24864076967749    2.47048465679749
O           1.63216426941398   -1.58801039125643    1.25795163214919
O          -0.44320192320397   -2.57801889470556    0.46662211117138
O           0.62384789900070   -3.44682380882535    2.47160834268428
H          -0.25939398614214   -3.77324528078165    2.61083873450254
H          -1.12383297183872   -1.55060346393835   -0.50138222986994
O          -1.57597944963667   -0.94774585023691   -1.15868658623654
H          -2.26648014105675   -1.48342701361852   -1.55239964195655
O           0.45975716611272    2.66297316538911   -1.54671606155995
H           1.12576681330758    2.10627600279690   -1.11568681688552
H           0.88328427894837    3.49648114665312   -1.75335684517926
O          -1.85513146062985    1.63877270744944   -0.34600003731097
H          -1.24265019891118    2.10530796630213   -0.93486638655996
H          -1.90377181152872    0.72081379238811   -0.67630200835992
O           0.59287339690482   -0.08484238439201   -2.55878329787912
H          -0.18601751147922   -0.50587275434379   -2.14788265159084
H           0.31759897484085    0.80156624379197   -2.81122637153773
O           1.89025162885671    0.52363546639915   -0.28611145803548
H           2.04180127499355   -0.28771232006229    0.24438215775876
H           1.55241550822014    0.17682532771995   -1.14407964303512
N          -0.03658487855852    1.10459409976310    1.49580917018681
H          -0.87324425794718    1.38461038098306    0.90937144706040
H          -0.22843506676715    0.15565609981606    1.96136350997609
H           0.77403116175857    0.96118730634231    0.83748955767220
H           0.17865648900863    1.80127109781753    2.20023447301743
