    26
        -50.46795603  Gyration_radius:  2.43789201821 Dipole_moment: 3.950
 S          -0.36332344193257    0.56392102110283    1.54466193841188
O          -1.52812492635146    1.08841716580345    2.20493050041604
O           0.26219785671003    1.55814780206424    0.65051838451670
O          -0.64559992183142   -0.65436626094287    0.78449918928040
O           0.70280136377790    0.19890809483231    2.62099705717523
H           1.25406582458578   -0.54938622416869    2.27939216852510
H          -2.96143323066429   -0.56609886657547    0.33885424142255
O          -3.17816783469248    0.37086372665494    0.30557288717512
H          -2.73483371309208    0.73574336105712    1.10802535746082
O           2.67012856302569    0.83911492606292   -0.14426977734429
H           3.19751628857961    0.65815443954872    0.63625002381242
H           1.84027309066283    1.25588918117045    0.17331958232061
O           1.24190667801056   -1.29429338154571   -0.87819237916116
H           0.48190708247057   -1.07083714940569   -0.28242047915325
H           1.85575101899597   -0.52894053052505   -0.81575188290983
O           2.07144259109178   -1.84899484812093    1.66394169249505
H           1.91478552246310   -1.84871791152885    0.69639707300342
H           1.62890352138025   -2.62605936849389    2.01034773499647
O          -0.35584731420878   -0.62230378013103   -2.88145808216920
H           0.34612961428408   -0.93446286708452   -2.25591115526042
H          -0.90231771820568   -1.38706467403929   -3.06814052326287
N          -1.36662214586578    1.34591695971905   -1.36417825520692
H          -1.59254656402034    2.20014345486559   -1.86324021003650
H          -1.00597406592066    0.60765510873612   -2.02450263967770
H          -0.62990831539177    1.53012691865686   -0.61741771006937
H          -2.20310980383177    0.97852369225770   -0.82222473677926
