    26
        -50.43718233  Gyration_radius:  2.55964390505 Dipole_moment: 4.893
 S          -1.43133117169736   -0.87252361822949   -0.90013129717776
O          -1.88249810234942   -1.74863169502928   -1.93284647147193
O          -2.43598670496270   -0.33477944298617   -0.03831230051124
O          -0.66554778668706    0.33757915803385   -1.58963828027039
O          -0.30329234972765   -1.49679438899786   -0.07898520142997
H           0.61882481651561   -1.25323098285492   -0.48475256143203
H          -1.37571913059557    0.75587327176874   -2.12204982885200
O           1.55203705639636    1.59927401671595    0.05668609192054
H           1.27038994655816    2.26122373588938   -0.57565106427126
O          -3.05522611370273    0.65240650165563   -2.60325604477440
H          -3.03385641357071   -0.28116519116495   -2.85173985837145
H          -3.50984002749097    0.68209574372606   -1.75425144880331
O           1.86297324693120   -0.70520713937929   -1.08287079865087
H           1.67648696816091   -0.60748508010875   -2.01901946918019
H           1.79335297579096    0.21833411020161   -0.67977980936855
O           0.56372148414457   -1.22406767552797    2.72959887975650
H           0.20555470132576   -1.70292198440055    1.97653704445012
H           1.49531915542135   -1.03927123499901    2.51272181646673
O           2.97113350518989   -0.45104506216611    1.60381197360608
H           2.74740357451089    0.45448530082228    1.36196931314585
H           3.01485597573026   -0.94242368286486    0.77858740556131
N          -0.50253015212692    1.15668373157321    1.58430402109754
H           0.74453673876121    1.44637140186244    0.67242674875351
H          -0.18290287556081    0.41519412016199    2.21535461668612
H          -0.85461870788575    1.91316713834366    2.15755998458590
H          -1.28324058905573    0.76685894797616    1.06372651855171
