    26
        -50.46810600  Gyration_radius:  2.48159799989 Dipole_moment: 3.410
 S          -0.96585196830684   -1.07345107578154   -1.24009147026019
O           0.06635584367635   -0.07641656032859   -1.45374063938119
O          -2.02256293076060   -0.55475608849288   -0.37967109258766
O          -0.44807660811937   -2.34911211998081   -0.79231727967926
O          -1.61739546557619   -1.34268347907241   -2.66104696977284
H          -1.93823533538658   -2.23591932942444   -2.58589590778218
H          -0.82834241478236   -2.39584305704728    0.87026822862599
O          -1.14610536762524   -2.15958822815970    1.76417855801505
H          -1.98925216554979   -1.72780001972982    1.60259413193728
O           2.25348197561710    1.53394101935297   -1.40377448884190
H           1.51688475236980    0.96891794135428   -1.68720429086759
H           2.75781720012019    0.99319892355827   -0.78863629827733
O           0.43348654249603    3.18582888740752   -0.41535667928307
H           1.22447807348786    2.67754546791682   -0.72081404299703
H          -0.00796734003835    3.47213029574068   -1.21686805105786
O           0.67075123525541   -0.26205338709505    2.30564583325316
H           1.33581159680590   -0.50996414988452    1.63071392341249
H           0.05358777743126   -1.02592861450943    2.33281836488660
O           1.98121649753988   -1.09552141072814    0.09935697945639
H           1.28758576634060   -0.77976512083389   -0.51275575996914
H           1.89850324063523   -2.05202736233734    0.08541830458752
N          -0.91505194945193    1.37928427516626    1.03580228668231
H          -0.39674414357589    2.09031674075764    0.45582411923133
H          -1.41200399749465    0.69161081453926    0.41075423187750
H          -0.21451309999446    0.80280517478638    1.61788737111292
H          -1.57785773511531    1.84525045282569    1.64691065766566
