    26
        -50.46246013  Gyration_radius:  2.70513134102 Dipole_moment: 4.407
 S          -1.63516368557852   -1.79291457304240   -0.08751407423519
O          -1.45033126146212   -1.25578055931920    1.25550592177095
O          -0.67659930399826   -2.79648249453651   -0.46387232329093
O          -1.70220782861734   -0.70702446444827   -1.07181959450298
O          -3.06712526433854   -2.47306928238475   -0.07453496535708
H          -3.54016108000233   -1.91349953174133    0.53306224032604
H          -0.39753820304224   -0.88191203906741   -2.13854520854917
O           0.41640942553424   -0.82508971166283   -2.68592574162186
H           0.31711830980553   -1.49790294118821   -3.36098766127281
O          -0.31173073464975    1.52261586890327   -1.06853892952390
H           0.15565917376404    1.35227814120869   -1.89296607707262
H          -1.00767269071026    0.82610028029929   -1.03948445371745
O           0.11348407386175    3.36724488971886    0.98062838387558
H          -0.17438226717509    2.79536279326971    0.25060548737798
H           0.45215066811451    4.16948625701657    0.58028236718989
O           1.57625863503526    1.85273662189995    2.71474761858273
H           1.08756026253622    2.49849871065301    2.16591192187152
H           1.16601681513096    1.86929939503448    3.58056943248884
O           1.84961960482180   -1.93775703175599   -0.62000868198478
H           1.66412559889956   -1.51134059477438   -1.47545028567899
H           1.06320000368698   -2.50154074677202   -0.48179492037307
N           0.84198897126258   -0.02894458671463    0.89805911900119
H           0.55975837307711    0.65944086841841    0.17475211606493
H          -0.04288440186748   -0.51056153017997    1.20741054115775
H           1.45032725716418   -0.76042094370011    0.43851564049440
H           1.29211951882992    0.48117721488074    1.68139211689421
