    26
        -50.47064873  Gyration_radius:  2.41854350865 Dipole_moment: 5.154
 S           0.90970755405966    0.67941483757582   -1.65341672843101
O           1.97268655191606    0.85358722400599   -0.69156392974711
O          -0.21272535915340    1.57697346879743   -1.47608909518430
O           0.47479659740572   -0.71965792177860   -1.73144287847863
O           1.51255738010246    1.03003557575665   -3.07523641691109
H           0.74822088843725    1.37148742541077   -3.52642625773616
H          -0.85849863104941   -1.35944713084732   -1.09940756105659
O          -1.61330424980548   -1.79479506851497   -0.62422977609193
H          -1.88811881692665   -2.52612828238475   -1.17896885180010
O           0.80718203952425    2.52170933771569    1.00437860918125
H           1.37532655377614    1.95350568242299    0.44921416305443
H           0.18076248662697    2.90565323600486    0.38351188924449
O          -0.81501740655015    0.83861136120201    2.26544686106792
H          -0.13512531641647    1.49455456652384    1.98106745385128
H          -1.52747599729420    0.93577080341982    1.58947106018350
O          -2.29957504476355    0.85973725506449    0.06436216700334
H          -2.39473104013066   -0.06715599444480   -0.18732184679052
H          -1.61461738036531    1.21701937422464   -0.53372407351375
O           2.04095343622890   -1.65488326406678    0.17764299523718
H           1.52976183687041   -1.52634505402562   -0.64813719705610
H           2.53150007530488   -0.82366035027206    0.23698788382854
N          -0.14175247147271   -1.57311463876500    1.67366552895107
H          -0.83466243678873   -1.81645991170374    0.94213397137173
H          -0.36321422018840   -0.54554920461573    1.99334942993825
H          -0.19556734847038   -2.21440061395905    2.45697611207516
H           0.81093033911757   -1.61646270274318    1.20775650781038
