    26
        -50.46256057  Gyration_radius:  2.62462515092 Dipole_moment: 3.885
 S          -2.55968566045429    0.36888639251384    0.19613590000172
O          -1.30787235335711    1.13372107672842    0.13448800690935
O          -2.43466129437076   -0.72285765236524    1.14858569307992
O          -3.04629941380729   -0.01415284283048   -1.10377186279097
O          -3.65111404220806    1.36054294620288    0.80073764829752
H          -4.16166778525457    1.60175369723672    0.03383007754762
H          -1.33545476563334   -0.75093558160066   -1.97608818975460
O          -0.45341113584134   -0.52567452545516   -1.65434015117070
H          -0.66116765054787    0.17485243713262   -0.99024352561542
O           0.85471996677494    1.37807819221862    1.67748444986733
H           1.56120127566453    1.19630784310365    1.03278433889618
H           0.05187561268812    1.53283237150870    1.14091360195676
O           2.72960239913920    0.52650215313216   -0.20572915213040
H           2.39014019538749    0.67412642586752   -1.12077491560206
H           3.60327006358970    0.91767768050002   -0.17161852532438
O           1.74803600599381    0.63629180875996   -2.68374239475209
H           0.86172176539498    0.29363330883706   -2.44552485048147
H           2.11056440629638    0.01886660005925   -3.32142800803406
O           1.30131494212993   -1.86558827293141   -0.04824992909600
H           0.64291448307636   -1.58074946915099   -0.71046157325137
H           1.97450794163958   -1.16628379580782   -0.05456022104650
N          -0.03805877129897   -1.05728774286298    2.09513859104194
H           0.36439385500526   -0.07259442562097    2.13535636376030
H          -1.04974931808127   -0.95650921610428    1.77070641091205
H           0.49351862445819   -1.56332995650339    1.33486307154827
H           0.01136064365518   -1.53810947310835    2.98550913515775
