    26
        -50.47241877  Gyration_radius:  2.45136018288 Dipole_moment: 3.566
 S          -0.66387982903733   -1.39635691573294    0.12505854865287
O          -1.62373321329233   -0.56293841062248   -0.58595331231364
O          -0.11071321846634   -0.68953921141279    1.28997795684349
O           0.39314177119378   -1.86790585134944   -0.74568623809999
O          -1.46179375887289   -2.61864282916180    0.66564196990062
H          -0.83320859852468   -3.03953642186549    1.28590572779023
H           1.32707408512069   -0.86084234891555   -1.53140752948810
O           1.83934043364816   -0.15014667560429   -2.00593696295929
H           2.46272920999332   -0.60806803434417   -2.57158484276949
O          -1.80390192946647    1.39727202482980    1.38147787376837
H          -2.40678501615101    1.01054852799009    0.73893724504724
H          -1.16093299513835    0.68458586274538    1.55039446141718
O          -0.06098701094227    2.90507005987595    0.01169584726294
H          -0.76127065496733    2.56979426374084    0.61649652027621
H           0.75972403223230    2.45844440595037    0.32251788130248
O           0.44254026609145   -2.98658301999373    2.45278982034664
H           0.49232559300820   -2.05068975425129    2.17891618280299
H           0.21265601407985   -2.98866274676540    3.38498536851926
O           1.81428280501477    1.09004093193093    0.54680817917936
H           2.11272321413137    0.72733736276235   -0.29731442158002
H           1.20909096997571    0.42499543767692    0.91961011198782
N          -0.44204469793854    1.32024845477048   -1.98144366611250
H          -0.92027260866473    1.67078251142147   -2.80354441578362
H          -0.99843181676665    0.55281676206295   -1.51016142116403
H           0.47937099802901    0.91098777102245   -2.22006796353951
H          -0.29704405428474    2.09698783324072   -1.21811292128852
