    26
        -50.47604023  Gyration_radius:  2.42364459031 Dipole_moment: 3.652
 S          -1.14355904986678   -0.99369195264122   -0.35237546170039
O          -1.34985628772728    0.29861492046275    0.33762403927012
O          -0.11421359471675   -1.77329325410266    0.30569061905185
O          -0.88222647440985   -0.78228524873711   -1.75905108044105
O          -2.47403852966190   -1.79279327577130   -0.19885876826638
H          -3.14455072685536   -1.17012897099212   -0.53663269674633
H           0.50117666271316   -0.11221072870605   -2.14779524979081
O           1.37404648201395    0.34138601361926   -2.29994764017955
H           1.47810830335136    0.39395676249369   -3.25122361295563
O           0.60329135299901    2.03107618024795   -0.28323850836607
H           0.93896889647269    1.65637426928085   -1.11634817595917
H          -0.20932286651132    1.52068479979587   -0.09002261528964
O          -3.76400634765122    0.46434661660043   -0.71119083258533
H          -4.40290905227469    0.78198457839985   -0.06895008160620
H          -2.88000540565740    0.68603993573897   -0.36115654836891
O          -0.10369806825303   -0.39272833801483    2.57646960773469
H          -0.71851159454854    0.05595239158133    1.96474539236838
H          -0.00905552873573   -1.25965293609317    2.15081633953558
O           2.42183176314727   -1.18263921113042   -0.26987983835593
H           1.55501501499195   -1.60183579048485   -0.08685602287758
H           2.28594271894621   -0.70568096048051   -1.10702707280661
N           2.03875370256590    0.72381425857591    1.48704256994811
H           2.37263476416975   -0.06474867661061    0.84747958849706
H           1.55945486352708    1.42329194869115    0.84372448164403
H           1.27651126980453    0.31689568960868    2.10097127796598
H           2.79021774216582    1.13727096867380    2.02599029027518
