    26
        -50.45876818  Gyration_radius:  2.59573196264 Dipole_moment: 5.110
 S           1.64272921309970    0.27182582668103   -1.49047938687478
O           0.79099998526592   -0.80674396880121   -0.97607787347010
O           2.61515920969155    0.73528344120407   -0.53419433514419
O           0.81748603712820    1.31097477038575   -2.07887223234758
O           2.48614869575086   -0.37229359715672   -2.67265796138086
H           3.37052019651897   -0.26872672318704   -2.33729521860148
H          -0.32974531085683    2.03784876200275   -1.25575091673057
O          -1.08085686148443    2.33188286986605   -0.67382434441884
H          -1.24963467211749    3.25067739481302   -0.88700181614310
O           0.73253519839473   -0.26646209270925    3.06001609365913
H           1.62788808302595   -0.32330325197488    3.39673126181536
H           0.72215170964067    0.51644223774992    2.46542111480993
O          -2.50158692608878   -1.89528994539258    0.85340478724420
H          -1.54663988903012   -2.02529477705929    1.14739071203358
H          -2.84095687526199   -2.77460183087653    0.68170133982079
O           0.89595295813391    1.72279424328553    1.28055997253257
H           1.58524444310032    1.42379368930876    0.65956194657764
H           0.13477709372239    1.99397367254632    0.75120986553584
O           0.03004941766700   -2.16598058267191    1.30652808434979
H           0.43513903917165   -1.78891917982858    0.50938384995462
H           0.26713022102501   -1.54793664576003    2.03367880431320
N          -1.74787522267247   -0.26923624898924   -1.06081148341845
H          -2.17327864588285   -0.41874515028391   -1.96924629430253
H          -0.70493575876053   -0.51271744805967   -1.09894581121972
H          -1.79647262660111    0.73089137120758   -0.80131171598470
H          -2.18192871266994   -0.89013683639089   -0.30911847217426
