    26
        -50.46655339  Gyration_radius:  2.50406513091 Dipole_moment: 2.053
 S          -1.61072523187547   -1.20945022114586   -0.23458307511307
O          -0.99411838226323   -2.10284953673128    0.71020042411250
O          -0.87242653389436   -1.09231849888564   -1.48601546829110
O          -1.87379799412089    0.11559985215032    0.33002695311109
O          -3.02151726138978   -1.82852192660862   -0.59552681908489
H          -3.40820137064102   -1.23261758112953   -1.23150777077150
H          -0.73591207326500    0.15753823779266    1.50822460257347
O           0.09893723675111    0.10524358399775    2.03044518387883
H           0.04896736129683   -0.73553119308463    2.49261604838562
O          -0.95879110433527    1.66830726042335   -1.67657021005714
H          -1.35349158537380    1.27816978065311   -0.87472624971165
H          -0.88255313928096    0.92134683947557   -2.27926937558286
O           0.63834537020392    2.78122451963093    1.39448435936136
H           0.56193702737087    1.92814834560790    1.84334401361518
H          -0.25881229786515    3.05581720276194    1.19237977632743
O           1.57669976287637   -2.87558730431399    0.37724963738664
H           0.62955560698413   -2.67691383001772    0.50961045762251
H           1.64644677154007   -3.83059446389921    0.38454792879019
O           1.63191084944990    2.20183820533969   -1.06937462369316
H           1.50663478300169    2.60508735861027   -0.18868808374350
H           0.73474471376467    2.20816280892518   -1.46239295963075
N           1.40694120738662   -0.29047360231766   -0.34385163813033
H           1.06391572001315   -0.17169197198327    0.63438534888346
H           2.12796745637691   -1.01265072899898   -0.34628553826930
H           0.59593951507063   -0.64089060518505   -0.90801834816551
H           1.70140358221783    0.67360745893256   -0.71070458379753
