    26
        -50.46157884  Gyration_radius:  2.49788233055 Dipole_moment: 6.122
 S           0.72851874337787    2.02691968840455    0.72562494836849
O           0.90455009555981    0.79658614053058    1.49329315087090
O          -0.48194002357557    2.72795727837558    1.06442086563843
O           0.87173004443772    1.75746818324553   -0.69970536574198
O           1.93761628140401    2.96426020229023    1.13069825039138
H           2.69792896417861    2.42106157147608    0.94660688462015
H          -0.71277083079467    1.54447392725942   -1.34679856947193
O          -1.05134683212383   -1.34119914011870   -1.72199548124889
H          -1.77087795940704   -1.79276584913839   -2.16380727529751
O           1.91722644037739   -2.71756669163989    0.44537540056609
H           2.17343353431185   -3.48995148459391   -0.05990632049743
H           2.03299452383285   -1.94497772104117   -0.15657419476880
O          -1.59900964015383    1.16659580046305   -1.51685707340759
H          -1.27054834495333   -0.35962431433760   -1.76264369633959
H          -2.03105491765042    1.13977927491029   -0.64628120573874
O           1.71641105832567   -0.71576421808613   -1.31478993840515
H           0.92080744679572   -1.01452252691451   -1.77246233791162
H           1.52577061680512    0.21270957081223   -1.07497278347420
O          -2.24448124779250    0.80291623849915    1.16287527461270
H          -1.56723035199473    1.51420343774741    1.24777794614082
H          -3.04813661503925    1.17745268276385    1.52863396531246
N          -0.35236109966867   -1.39444358358245    0.90667719557083
H          -1.10445378439403   -1.54082678773429    1.57102466425375
H           0.12126381683441   -0.45934756447823    1.13209709381873
H           0.40321870786368   -2.10941870071061    0.95330014028909
H          -0.71725862656031   -1.37197540438212   -0.07161153811562
