    26
        -50.47228127  Gyration_radius:  2.43730107971 Dipole_moment: 3.531
 S          -1.09556105360968   -0.87138559339857   -0.36228021517863
O          -0.91642594203839   -1.03169964474380    1.06143880337142
O          -0.06161759171418   -1.54001406792879   -1.13182050324298
O          -1.16074384974574    0.55704726815158   -0.74440039234578
O          -2.47693392707775   -1.49581269357982   -0.72656228525862
H          -2.61992503979057   -1.21757626178875   -1.65093143348268
H           0.45024868972911    0.81172640854519   -1.13223687933980
O           1.41392734118058    0.78246143276564   -1.31503012020065
H           1.50888262569849   -0.01836338657365   -1.84163554646544
O          -2.51585662981305   -0.01850749577044   -2.93001328855436
H          -3.28511840711479    0.54556718521326   -3.03670291124509
H          -1.94030985845424    0.41304553245912   -2.26918797786610
O          -0.66663306553367    2.64717570458294    0.86365904553606
H          -0.98729341656294    1.91315514646222    0.30394844629055
H          -0.11334936981952    3.18878475350991    0.29790782039468
O           0.30244813070519    0.79912401087744    2.56983491438644
H          -0.05248430142340    1.61719962663519    2.16829795303970
H          -0.27133673712193    0.09157849216418    2.21018883451226
O           1.45170468883975   -2.45874844019974    0.79269240787527
H           0.76122932051456   -2.52697694951490    1.46048498644277
H           0.94891631080554   -2.25582558519644   -0.03132851835264
N           2.30123365163399    0.02491452457403    1.09535528857107
H           2.11182135331561   -1.01977933653913    1.02987156201391
H           1.57528160130929    0.41657834804023    1.79046087753057
H           3.25353689727447    0.22099289805819    1.38142925622658
H           2.08435856883436    0.42533811319892    0.14655986534509
