    26
        -50.45120839  Gyration_radius:  2.45674448238 Dipole_moment: 1.438
 S          -0.51401960020355    1.71413125038058   -0.33688901840412
O          -1.44498760718069    0.69197455085250   -0.73717292308072
O          -0.34565473838926    2.77571315631651   -1.27727855702324
O           0.86565657988171    1.04109842989886   -0.05466871291947
O          -0.87023789046725    2.26666966181259    1.03519247534883
H          -0.91715868762223    1.48991846837373    1.71328554358779
H           1.11541700784552    0.45979524988117   -0.84047840011713
O          -1.67489530943371   -1.42163369472214    0.91138572166073
H          -1.78635380738969   -0.77621972922879    0.19267983801285
O           1.74041660989491   -0.40234967465755    2.22964562440970
H           0.92073583283869   -0.26569576670900    2.71848431933165
H           1.72420953225503    0.25897997891628    1.52890394265917
O          -0.52540003521222    1.03451535889883   -3.32468344678665
H          -0.44800595108486    1.85986391695526   -2.81337804715923
H          -1.32379290235926    0.61663412451788   -2.98506290616377
O          -1.01184732311991    0.31397476816813    2.63204667498224
H          -1.29464272291506   -0.45156195274828    2.00076498809073
H          -1.74138696814869    0.44531068052356    3.24099062671537
O           1.40441366134186   -0.30461603337648   -2.16697105790231
H           0.68395003970459    0.09409215540310   -2.72772265088625
H           2.23577643689008   -0.02218860994508   -2.55583332231609
N           0.74195617569032   -2.35114387690703    0.27609999927808
H           1.00192278610297   -3.32840325588092    0.29953634062008
H           1.00078342180550   -1.97793144537273   -0.62966071765830
H          -0.82738956182392   -1.89958298342335    0.68821395235967
H           1.29053502086307   -1.86134472800131    0.98256972327278
