    26
        -50.45660199  Gyration_radius:  2.76288223662 Dipole_moment: 1.592
 S           0.93545854274573    0.74066186336200   -2.56459294915443
O           1.25946778849612    1.49707617595902   -1.36159702272873
O          -0.50050271998124    0.52133891454942   -2.69827344154179
O           1.68889315083411   -0.49193354789024   -2.68543206488387
O           1.36867751988392    1.66734959474838   -3.78023332682048
H           1.28363634249362    1.09611599739416   -4.53838008869591
H           1.90867892654272   -1.01625515619868   -1.07805317508852
O           1.79478353725636   -0.82868284415940   -0.11986367646341
H           1.90372697995555    0.13436050630011   -0.10636405777587
O          -2.71382074513281   -1.50276495647669    1.35783857527767
H          -2.65711700517963   -2.34684938692764    1.80733480853764
H          -2.32287501916524   -0.84023285780307    1.97078186099163
O          -1.16119889796867    0.23256844784542    2.70850714626660
H          -0.88348816816866    1.03135084945658    2.24569453567846
H          -0.38231377503155   -0.35188672754389    2.73114758306445
O          -0.42374283752636    2.08290822616020    0.55675774663559
H          -0.95750869344394    2.83404473373147    0.29327535521693
H           0.27322412727252    1.99084806706419   -0.13909178310524
O           0.98927730161521   -1.46412773427049    2.42679368608221
H           1.71510066840563   -1.56294446336663    3.04376853160819
H           1.38603644569670   -1.35199777904664    1.54694223503257
N          -0.92166953320039   -0.44389862252867   -0.32754653866918
H          -0.93676053321094    0.47874877384269    0.15466871310412
H          -1.69011755639944   -1.02833314901778    0.06288541027891
H          -0.96851455429462   -0.21781769960334   -1.35689476698700
H           0.01266870750108   -0.85964723558363   -0.15007327586012
