    26
        -50.46654511  Gyration_radius:  2.54802835614 Dipole_moment: 5.479
 S          -1.16237030543739    0.97651920287913   -0.98973427784488
O          -2.40212011649105    1.40001207739619   -1.57428918381736
O          -1.09262762307044    1.12271353579428    0.46087328370725
O           0.01150626836757    1.87744281154821   -1.53988738725337
O          -0.79374298061012   -0.39574103338482   -1.37205483986741
H           0.82784544450252   -0.40767246952043   -1.04725760347054
H          -0.14119747337605    1.82920327206770   -2.50254606005105
O           1.77704901317470   -0.46695901220486   -0.79429196740925
H           2.25955521755045   -0.01299539574375   -1.48730877065363
O           1.33229678026566   -0.18392723637192    3.34166940446364
H           2.14563074305088   -0.68957514920270    3.37535095412096
H           1.47253810549163    0.52066102723425    2.64896869039104
O           1.51029386906925    1.35381239490459    1.23854680240109
H           1.80176461485095    0.72712903786644    0.55026034525153
H           0.59512004553610    1.56675699269403    0.99073868280219
O          -0.23063735595053   -2.57122415965657    0.04719821855746
H           0.72035648325203   -2.54368117399343   -0.09891425613569
H          -0.59250379848066   -1.91235972394918   -0.58269379840651
O          -1.06508807633501    1.08814652252102   -3.81730425720752
H          -1.82825953766122    1.26682330243107   -3.23475665621122
H          -0.94239236730927    0.13568383519095   -3.77772900529204
N          -0.85372806958027   -0.95163733396608    2.05408608190891
H          -1.02645657932135   -0.09228707019247    1.45489564487948
H          -0.62463021480431   -1.73124779379864    1.37817987137555
H          -0.02132901516586   -0.74145305608929    2.67119555496701
H          -1.67687305122523   -1.16414343468238    2.60680452874911
