    26
        -50.47127557  Gyration_radius:  2.42772266387 Dipole_moment: 2.315
 S          -0.87386360660165   -1.53472060683192   -0.27953009811392
O          -1.16406531839530   -0.41755099707058    0.60455416216745
O           0.35825322600544   -1.30901088901873   -1.02178105052376
O          -1.99353381497547   -1.94496795868967   -1.08534311190235
O          -0.55844162485316   -2.77645269866693    0.67913415303600
H          -1.35471708062902   -3.29573772068142    0.62714314409033
H          -1.89629901710847   -0.53274388140641   -2.00819268927482
O          -1.72268810653800    0.28116928242533   -2.51778129291078
H          -1.76015850412201    0.02208389888680   -3.44032479248050
O          -0.08730222062439    1.06080855858950    2.57040869392139
H          -0.61985562510411    1.85500037159334    2.49422440745812
H          -0.48297114674037    0.41731979377352    1.95264171642355
O          -1.42165121574292    2.02297129082229   -0.45548212830506
H          -1.79122855037142    1.77771082531880   -1.31556759776542
H          -1.50303316041415    1.19887530604808    0.06384370967141
O           2.07926926511701   -1.60683440219252    1.01923020193837
H           1.53084984734879   -1.59924149969861    0.21455456922852
H           1.59085646355414   -2.13420501396526    1.65408327124315
O           2.31440286652254    1.06144284033811    1.37384562876627
H           1.54738376147238    1.16467618862754    1.97688942418416
H           2.46562540497643    0.09504190465632    1.34333074383367
N           1.08277602410528    1.25863850821795   -0.91102624195747
H           1.59417932993054    1.65063409951262   -1.69342587011637
H           0.84249668087541    0.25468079391313   -1.08867593917808
H           1.66353152412066    1.27754015335144    0.00178613085089
H           0.16018457968142    1.75287184640998   -0.75853915463813
