    26
        -50.46047704  Gyration_radius:  2.51722996044 Dipole_moment: 5.335
 S          -0.46769855924691    1.54333269014617    1.49804639196999
O           0.98224282950896    1.67743180983467    1.64420748844738
O          -0.82289090083049    0.14976493589756    1.28178195573894
O          -1.03087946291441    2.46305277375605    0.54294498175521
O          -1.09572412596741    1.93698700666593    2.90435257916859
H          -1.26994673009489    2.86302490375462    2.77349437898600
H          -0.55000017516348    1.90934438748703   -0.97154489184876
O           1.43978698424482   -0.41819827421050   -1.68475292777317
H           2.00511055758781   -0.30479199670856   -2.44957274925861
O          -2.34809183868394   -0.23393164604084   -2.49382652077975
H          -2.48169865005031   -0.71598164047505   -3.31057902489031
H          -2.00094827785055   -0.87495997602203   -1.84023884384323
O          -0.89408067014846   -1.67719883851702   -0.70261625655731
H          -0.06462416748379   -1.45306902200410   -1.14727721255865
H          -1.01190648050596   -0.98568564411154   -0.02302481897444
O           0.27425191146666   -2.19219474892420    1.88900497199509
H          -0.12829529695142   -2.65533652904536    1.14324629471510
H          -0.27349559020708   -1.38847066378305    1.98864118006131
O          -0.29534577978670    1.46381326309617   -1.80553881891421
H           0.78787784328925    0.35840584059894   -1.71289253020239
H          -1.10934235589848    1.02806158686274   -2.12241769857889
N           2.10161186434256   -0.51437412229462    0.92035255440199
H           3.07527686940367   -0.59885437337372    1.18974268264127
H           1.98456497057438   -0.51495024358570   -0.11814477345494
H           1.50943289249996   -1.28522197747781    1.33653737684286
H           1.68481235886230    0.42000049847341    1.27007424092850
