    26
        -50.46737959  Gyration_radius:  2.43068003372 Dipole_moment: 7.060
 S           0.00829239714829    1.48664169798515   -0.95941204956243
O           0.35008841182099    1.19627341888327    0.42760465378038
O          -0.55140686395997    0.30538772198927   -1.61253419102985
O           1.01854779009666    2.15892430147644   -1.71512861830716
O          -1.22128594316475    2.51521981411998   -0.84825668822832
H          -0.97803258025732    3.20154653053333   -1.46121903520863
H           2.03152062929854    0.71874664085060   -2.84035316409087
O           1.78760910598878   -0.21310672095408   -2.88794916350372
H           0.83923696479597   -0.21379037502639   -2.69354077901045
O           2.20796132809081   -0.73812005832196   -0.25320082373019
H           2.24530974716645   -0.73218335647337   -1.22886597005268
H           1.73418291973673    0.06524617190090   -0.00120777052521
O          -2.08053889154414    0.79039577768212    1.37018698720561
H          -1.18337085209856    1.04508441793731    1.06268834853333
H          -2.67034500635524    1.43544714128517    0.97622014787638
O           0.36864160424704   -0.16463348042253    2.88187869345564
H          -0.54134415463964    0.06439312962630    3.08762266700192
H           0.62258695864596    0.41703395013406    2.15188904591378
O           0.73449615424092   -2.31488636615468    1.28773386625356
H           1.42227934806552   -1.91888544899358    0.70230187362704
H           0.71830812101596   -1.72264656047668    2.06693083848252
N          -1.39717021187711   -1.49989267370460    0.09355847221477
H          -2.01448082666635   -2.22103580017065   -0.26228020521764
H          -0.51696588640873   -1.92800377421074    0.59808651768721
H          -1.04827959070646   -0.87777567589149   -0.68466774901443
H          -1.88584066267328   -0.85538044358328    0.74191408546367
