    26
        -50.45411417  Gyration_radius:  2.60199547573 Dipole_moment: 4.151
 S           0.18910774230644    0.72881511864461   -2.58518826214910
O           0.75698746503761    1.20962803369853   -3.80222361977820
O          -1.08515131567989    0.03031043137703   -2.70993612856789
O          -0.16529575783111    2.06809989669237   -1.72332678490602
O           1.08757764347864   -0.00696669855987   -1.70335321527876
H           1.61362621760108    0.62464351991433   -0.36149176384009
H          -0.39994208513726    2.65514613374461   -2.43412929157016
O           1.31771678614106   -1.84906446382116    0.48987125607361
H           1.77156197309591   -2.10850143520538   -0.31577333095160
O          -0.44885925035273    2.06052907169578    1.07777593354953
H          -0.55772740424640    2.25842140716088    0.13873230346492
H           0.43759259190045    1.66787214527244    1.13623286886776
O          -2.09074911421519    0.01204884325817    1.55876239809733
H          -1.60858099475326    0.86601367523495    1.47019047308126
H          -1.59724371429542   -0.49728307909963    2.22572758185332
O           1.94914725180641    0.79813727297282    0.56290607702836
H           2.79722005601358    1.23187840245388    0.46033175984427
H           1.60846779566336   -0.92852613880253    0.65061379350602
O          -0.18174098486801   -1.46910952302390    2.87623813260472
H           0.34395984460691   -1.83764269616077    2.15454833142181
H           0.41965621082018   -0.95798718718704    3.42062428778625
N          -1.23645257554574   -1.32410583024563   -0.52066620820251
H          -1.20365356476934   -0.75540353656585   -1.43139915720777
H          -1.76232312904852   -2.17843367508052   -0.67431838925241
H          -0.26431915241166   -1.54526736876089   -0.23086046838720
H          -1.69058252530238   -0.75325229957701    0.27011141296316
