    26
        -50.47156982  Gyration_radius:  2.40465837581 Dipole_moment: 3.768
 S           1.36156757822274    0.65065341329288    0.25808610664619
O           2.04033073756811   -0.29707618180370   -0.59924945020725
O           0.73535567341410    0.01628706931101    1.40183829939837
O           0.36522274387403    1.43442871092640   -0.50440142675717
O           2.43845830072537    1.65610809916650    0.76843638758889
H           1.91960894896786    2.35521412150427    1.20796377160878
H           0.03942017479944    0.30339189619677   -1.71460488410207
O          -0.10442182949975   -0.46721668119397   -2.30455918295453
H           0.79097919541406   -0.73584384120397   -2.53264406636169
O          -1.81954318195889   -0.71313525783329    1.32214511783922
H          -2.22773177427244    0.02008028706315    0.82229209618720
H          -0.92101215351961   -0.38999641938746    1.55072921001458
O          -2.32149741977464    1.22110722099714   -0.50048970621931
H          -2.53353069618176    1.01584371618355   -1.41290249981252
H          -1.36324513409013    1.40350134456890   -0.48412011613215
O           0.49269393145410    3.36529403834678    1.30956102836388
H           0.48427513473543    4.25131906868383    0.94068714707459
H           0.19017743573268    2.76297986621054    0.60498593274020
O           1.49754848276191   -2.53776123471056    0.64121435399444
H           1.88113617489442   -1.79654810698818    0.11892513156315
H           1.32852987304845   -2.13224553254923    1.49930327487852
N          -0.87416356710648   -2.30567238158980   -0.49683873601679
H           0.06110097998082   -2.56980082491763   -0.06401407867440
H          -0.66883992225436   -1.65699990543344   -1.29804967248681
H          -1.39931634628076   -3.11994007471715   -0.79410536249206
H          -1.39310335066491   -1.73397239012333    0.25981132431617
