    26
        -50.45761301  Gyration_radius:  2.69951500504 Dipole_moment: 5.107
 S          -0.11491191620503    2.18394741445663    1.04138433582027
O          -0.62286064520223    2.93017600965063   -0.10697495943335
O           0.85175956617012    1.17525714546234    0.66244776169576
O          -1.20639555806936    1.65656919615823    1.84415129370800
O           0.65619199177721    3.22492920451232    1.95035492243729
H          -0.02383556348635    3.83884885537041    2.21134553898675
H          -1.91800007705221    0.46424746859585    1.08815891356531
O          -2.30977824026233   -0.26342919936243    0.52894863494540
H          -3.20471638582305   -0.38609410049893    0.84993518885494
O           1.22286922907827    0.22418892607236   -1.85908142987478
H           1.45787995454544   -0.73014096875442   -1.85675588277256
H           1.38842199386202    0.55654521172460   -0.95899324271575
O           1.67657394696552   -3.16996154386926    0.75919305983381
H           1.08134222916710   -2.48760055118155    1.15196667692718
H           2.50691137444570   -3.09207689361869    1.23110435834003
O           1.72920135031891   -2.40630244914801   -1.78877937612347
H           1.75384130091113   -2.71087691674692   -0.85101528933409
H           1.21459834127847   -3.05822773253694   -2.26517848102014
O           0.16137438902875   -1.20487654355387    1.70552143814410
H          -0.75051741650130   -1.21334958544560    1.39352345679084
H           0.51348446636157   -0.33680605104063    1.43254059668540
N          -1.24193355807950    0.94986848974507   -1.66014905357443
H          -1.74749974390957    0.33120985119868   -0.99809428885065
H          -1.04677541561906    1.85546450341272   -1.13051879290533
H          -0.25329458266585    0.55134610704483   -1.86809732047821
H          -1.77393104099704    1.11714416246371   -2.50693803965183
