    26
        -50.45563556  Gyration_radius:  2.61004511955 Dipole_moment: 1.725
 S          -1.89867880346006   -0.59319710403970   -1.75936359334738
O          -2.57885925168313   -0.49986486006243   -0.46559090982383
O          -1.42320687557454   -1.90938404808972   -2.06429111838914
O          -0.83779811782974    0.42135839634225   -1.83717599112258
O          -2.97410651779957   -0.18691694701374   -2.85021405880920
H          -3.29170919741962    0.66392804486417   -2.55983257936984
H           0.40143112453299   -0.55081200109472   -1.48402804322486
O           1.02343536872492   -1.22434869272184   -1.10906902607907
H           0.76107889907470   -2.03394546090763   -1.55946673266507
O           0.37060695135856    2.12239612002595   -0.11276166759426
H          -0.13097010895996    1.61383012555269   -0.77772654193444
H           1.28064695022940    1.78954784626984   -0.16160806986583
O          -0.43556516290168    1.31339815927116    2.23093230587821
H          -0.11715822324627    1.72621376096043    1.37838962233906
H          -1.31212786628822    1.66874211965603    2.38325207213287
O           1.84751802957329   -0.41392341977971    2.33310031360548
H           2.33184731275702   -0.02828291444842    1.59137975778555
H           1.40210957736166    0.32278260885944    2.76082045059143
O           2.75861451636327    0.63733266530483   -0.15929121532869
H           3.58063919439544    0.74259684871452   -0.63971892338867
H           2.28526887197726   -0.11125166835227   -0.56450005910760
N          -0.60829995456023   -1.11394457082962    1.09872476639300
H           0.18267800017501   -1.23469190157379    0.43029306628453
H          -1.49492510061423   -0.95195690884746    0.52208228640162
H          -0.67977451808039   -1.92618744201868    1.70287020123094
H          -0.44269512810586   -0.24341877604313    1.67279370740923
