    26
        -50.46007263  Gyration_radius:  2.59290074072 Dipole_moment: 3.691
 S          -1.17372148140024   -1.94076125622750   -0.70486918087773
O          -1.96316550672864   -1.16774024198662    0.22459535326018
O          -0.07775887829395   -2.66413538928310   -0.06649736341339
O          -0.68815207860730   -1.15294837730158   -1.83139163680979
O          -2.13361805296554   -3.04126171322829   -1.31222275249130
H          -1.53974514101327   -3.54453868303392   -1.85973360866931
H           0.01741295024160    0.33899143327646   -1.54662910124529
O           0.20937205912778    1.26803693020106   -1.28274762121305
H          -0.51273004303012    1.76556483957829   -1.68537910548168
O          -2.56281360658464    0.83690578817369   -1.74620068956158
H          -3.03730942439789    0.56690197164847   -0.95601400805548
H          -2.01784935912599    0.06760894259335   -1.97322617211820
O           1.63965813441765    2.31550585336764    2.02569793269871
H           0.74274198997954    1.95448304552307    1.96722266464049
H           1.54826899331237    3.26371647818611    2.12672270550055
O           2.68823391699418    0.88080014938383   -0.08812258181848
H           2.01731785105505    1.10577247080213   -0.75064457830621
H           2.56238700975653    1.52534677597589    0.63105497040926
O          -0.62262225428234    0.86529429968481    1.23526402409038
H          -1.30514575206706    0.18979037755499    1.03846299744639
H          -0.35736328973118    1.17785483870757    0.33864678499840
N           1.33380522025275   -0.94041173977997    1.25922894290122
H           2.02333103140889   -0.39552776165967    0.66317247865475
H           0.85647041241101   -1.71698908424346    0.70597196445777
H           1.77962613942274   -1.30890760921727    2.09226409102528
H           0.57336917988073   -0.24935233870731    1.49537348998648
