    26
        -50.46727816  Gyration_radius:  2.58540046382 Dipole_moment: 1.475
 S           0.18247086441719    2.02561038019624    0.59965107492549
O           0.67628396891354    1.16780671934426   -0.47537888808178
O          -0.40309312791543    1.21129005598148    1.65983039854345
O          -0.65024287895483    3.10674959864085    0.14690491723474
O           1.47955339094484    2.70304399704429    1.22547437369148
H           1.26704016677747    3.62974660401411    1.18711912701292
H          -2.19154174537885    2.09457576670340   -0.16470393934840
O          -2.60319696578379    1.26228972396239    0.11402378087539
H          -2.10431526399751    1.04259286761982    0.91397436149482
O           2.02979407199538   -2.25033584269694   -1.69844835000401
H           2.45901330308194   -1.93994911506456   -2.49648997895512
H           2.41224797612453   -1.71761984175702   -0.95790007459973
O           2.60398951220144   -0.58651068543300    0.30362860295649
H           2.09889229647141    0.19514929300476    0.01649424912533
H           2.10776649371168   -0.93915351122988    1.05517612286545
O           0.38905909373895   -1.24467982752933    1.94881496024547
H           0.11696247908227   -0.29263360945365    1.90062258875664
H           0.19257606585752   -1.53215327245808    2.84115699040863
O          -2.81667207850256   -0.88953291919600   -1.45653543926027
H          -3.12470433672137   -0.59661454621386   -2.31509992173001
H          -2.86428433168452   -0.10277359404666   -0.86634564924176
N          -0.26932099808686   -1.29290117896324   -0.71016432818801
H           0.03856992446954   -0.28505686005164   -0.69761544557053
H          -0.22755141645233   -1.60446255283792    0.27173495765974
H          -1.23966053262860   -1.34025351282364   -1.08620073184129
H           0.44036406828276   -1.82422415678324   -1.25972376899899
