    26
        -50.45898867  Gyration_radius:  2.54244731525 Dipole_moment: 5.789
 S          -2.49751014536161    0.05986557506549    0.06606819371589
O          -2.29039117499280    1.15781314005063    0.96685143271852
O          -2.38962466055915   -1.25302246625739    0.71067434996906
O          -1.62725106591977    0.10388743703897   -1.11128728575312
O          -3.98684036102086    0.14455866590327   -0.46500658611974
H          -4.16640046126831   -0.74241003840246   -0.76163520876701
H          -0.48581344867627   -1.01396204880673   -1.36738491466264
O           0.24152732373029   -1.68948649899873   -1.39883798316067
H          -0.05588875567567   -2.37988387857967   -1.99166649456448
O           0.42945061177776    1.93752587348179   -1.26383153352818
H           1.18450314272306    1.37732059727909   -1.54117718848041
H          -0.37357583043909    1.41192041102159   -1.41326460078303
O           0.30406439316105    1.49501095260542    1.28707084966534
H           0.43734575338538    1.79665321581973    0.33896028058896
H          -0.66427118405204    1.58869768678097    1.39277192407132
O           2.82896537674920    0.31879848522065    1.26449636229608
H           2.09908564551949    0.93280573223433    1.43754551121398
H           3.63819183622854    0.81585867077593    1.39221349654963
O           2.38777311848640    0.07736840679463   -1.50005813356352
H           2.65908124751466    0.06443034549687   -0.56760274260464
H           1.76977197459980   -0.65921779992309   -1.61206668635640
N           0.13131706725206   -1.12741910813539    1.24872793798425
H           0.51594566380120   -1.49405384404754    0.36344259388062
H          -0.92639900660226   -1.27052995067140    1.18069801619021
H           0.54560853866670   -1.58882492974235    2.05181265607096
H           0.29133439096354   -0.06370464201422    1.29248576344950
