    26
        -50.47428068  Gyration_radius:  2.41375570439 Dipole_moment: 4.511
 S           0.77903257873124    0.83528325654662   -0.31127546114498
O           1.13444341419447   -0.22795503640050    0.64179871518706
O           0.18133635972661    1.96316046816793    0.37396758792786
O          -0.09860363321659    0.29117844061996   -1.35012000048082
O           2.08288484528837    1.32799711725848   -0.98036688686694
H           2.21697152659674    0.73519269080543   -1.77676629996486
H          -1.57293432320794    1.05856777009106   -1.09522338478745
O          -2.29483896940775    1.56340289417159   -0.65699653757968
H          -1.82758551885416    2.32890108234226   -0.30112537916512
O           2.02392591030676   -0.44377650885841   -2.83762183692677
H           2.32436268598620   -1.18416273842437   -2.27192211352488
H           1.06765869517086   -0.37706902304874   -2.69451353264139
O          -0.89949208922321   -1.86913379623045    0.27722289804426
H          -0.97717751450563   -1.78584983718478   -0.67792928716291
H          -0.07762796202220   -1.37096575913159    0.48968551936145
O           2.61851338607705   -1.96986239340414   -0.70724248408282
H           3.50526724608380   -1.99078294158026   -0.34428783302913
H           2.09959445749612   -1.36847377831033   -0.13217330580581
O          -0.38975390059743    0.96177195582903    2.71339096378281
H          -0.13880815873182    1.51317876531301    1.93468181969954
H           0.28992392891234    0.28015003487055    2.72942449352667
N          -2.44599456361288   -0.06120222575058    1.41410910085307
H          -3.32886707918614   -0.27364313862053    1.86444846293120
H          -1.98034090660680   -0.92055439195140    1.00411726971866
H          -2.55493836313814    0.62711344436947    0.60774550319321
H          -1.73695203224593    0.35753365851337    2.08697199893542
