    26
        -50.47096519  Gyration_radius:  2.40553433925 Dipole_moment: 5.279
 S           1.00834177794609    0.78638939257592    0.57160848845069
O           1.60168733923635    1.32415650417620    1.89388748420596
O           0.64790732370215   -0.61748101203506    0.78753405986619
O          -0.18363565528768    1.57630254836665    0.24982757294663
O           2.01929079951782    0.91521205849881   -0.46258475414597
O          -1.55445897792098   -1.57484867884432   -0.06546516439944
H          -1.62387025069065   -2.45234459210644    0.31463168509062
H          -0.72823550842890   -1.17086005488306    0.33744567964156
O          -2.20803899193357    0.66567494219763    1.65878002145100
H          -2.38032989718145   -0.15938409320297    1.19117281391390
H          -1.56165523803924    1.13713351135936    1.09022453915693
O           0.08409377177288    1.54016813948874   -2.32865777686180
H          -0.17394957119525    1.69689933713602   -1.38797483778912
H           1.04351997814758    1.63612210272944   -2.29804884117532
O           2.10472107928260   -1.53553521775053   -1.32109575389878
H           1.89273480005841   -1.92622692672849   -0.46579086510343
H           2.25956644458573   -0.58680082655736   -1.08391026744346
O          -0.33658185988063    0.74252388227836    3.53182898525648
H          -0.54550476849893    1.51967199048536    4.05496313288339
H          -1.10041508887917    0.61954134800263    2.91366849956785
H           0.92353771560853    1.07308337608567    2.57737693004441
N          -0.25637172115512   -1.06099727372058   -2.37736273733368
H          -0.20695594919752    0.00763363754684   -2.45789749956397
H          -0.51786203757546   -1.48861718913661   -3.25884439473616
H           0.71871436022225   -1.36353535234879   -2.05289284949021
H          -0.92624989421606   -1.30388155361831   -1.61242414054206
