    26
        -50.47132786  Gyration_radius:  2.39788672659 Dipole_moment: 2.034
 S          -1.53244335588175    0.73525088186151    0.22959876317859
O          -2.35639006215232    0.06210280183996    1.20673446992094
O          -0.34138727030793    1.34796795563008    0.79298502001735
O          -2.43406259539265    1.92788817816121   -0.32514246168785
O          -1.21294417424809   -0.11015218595430   -0.91001570496534
H           0.21565621226186    0.10968662115423   -1.84117557295043
H          -3.30199187891150    1.63349230123270   -0.07046357635081
O           2.13387251952334    0.38101568160035    0.21950806003257
H           1.37656232894960    0.90032184922845    0.54570590875694
O           1.09756545493955    0.29554550439811   -2.22038603022668
H           1.06122422012409    1.24770129702151   -2.38828767631868
H           1.97246983589566    0.33399911364753   -0.75477245670897
O           0.01034750081187    2.73526100218495   -1.51302594118811
H          -0.87052913244307    3.03864573454808   -1.73807878326004
H          -0.07107304195267    2.35106285656152   -0.62567723049868
O          -0.41161844531447   -0.70374299180921    2.77403626619371
H          -0.02091000992009    0.16870948747649    2.88015587536249
H          -1.24130019389821   -0.53169088241574    2.27368499094232
O          -0.10649174949850   -2.50364038141239   -1.09281481656801
H           0.41765728754934   -2.34043312902442   -1.88234366119829
H          -0.69481327143014   -1.72230454845491   -1.01810816179126
N           1.27681560301124   -1.90234077432779    1.10280736175450
H           1.92357841765927   -2.57879344544618    1.49203097505321
H           0.74864682435646   -2.29625895352573    0.28038025743544
H           0.58547928420308   -1.57002762430944    1.82909417465679
H           1.77607966204155   -1.00926633984811    0.75356995039900
