    26
        -50.46580820  Gyration_radius:  2.4187073954 Dipole_moment: 3.782
 S           0.88060692709636   -1.64105958653501   -0.61346157496976
O           0.62773296242021   -1.51358066545462   -2.04324546458174
O          -0.33815207705876   -1.66530190289919    0.17114569561094
O           1.82277967831016   -0.64151219459752   -0.14649674265210
O           1.56356308335724   -3.05070286196424   -0.40526503320151
H           2.29799406389161   -3.00560011852497   -1.00834567823041
H           1.14635212063274    0.86563598078722   -0.39659846280888
O           0.73646943382068    1.75784889328295   -0.46041270512604
H           1.22760345252143    2.26444507930368    0.20100647518287
O          -2.54872230469904   -0.25178935048837   -0.51232594095744
H          -1.95729557333372   -0.97448108673078   -0.23451271264608
H          -2.39533600002629    0.45758616994020    0.16460948661792
O          -1.54471564687560    1.54032080382645    1.12997479074336
H          -0.77374163180870    1.77801321047739    0.58637509438243
H          -1.18236353624590    0.97210931029064    1.82935581782744
O          -0.19192445976162   -0.42288589108961    2.51130020175097
H          -0.47446442223000   -1.04896843523879    3.17912777927478
H          -0.17774093972268   -0.91418393328232    1.66043179237824
O           2.04392623581637    1.26792771680506    1.94887530645925
H           1.30301486594008    0.85984990669191    2.41512957537379
H           2.34950236115753    0.58018743725314    1.34510789948677
N          -0.88849347492414    0.58162088853617   -2.29696911890451
H          -0.25896298510681   -0.27576473415378   -2.33607130894536
H          -1.71378833061674    0.28689459783929   -1.64325893518193
H          -0.35572150776874    1.32660876092793   -1.82611759816796
H          -1.19812227474165    0.86678198501552   -3.21935863874416
