    26
        -50.46090868  Gyration_radius:  2.46606111964 Dipole_moment: 5.182
 S          -1.56194121254614   -1.30438792127289   -0.50658748731869
O          -2.65834848902136   -0.53304803194738   -1.04810528692327
O          -1.44319225802251   -2.64898170295209   -0.97679900174834
O          -1.84077812039187   -1.40554710793964    1.08182011548365
O          -0.31138478609200   -0.54208354579163   -0.55884658450387
H          -0.04978621126268    0.00724164164805    0.97933023308116
H          -2.50243288845163   -2.08770790817233    1.11465807920010
O           0.14889065791400    0.47377726447323    1.82527864109610
H          -0.48802209553791    0.12253234504535    2.44994999779212
O           1.96909830563726    0.74676305275552   -1.22835529246525
H           2.45114694926041    0.33586886708025   -0.46645102392151
H           1.23566299326500    0.13176397438909   -1.38205594020326
O          -1.97997537716058    1.96323392007692   -1.23401520804709
H          -2.25504691955944    1.01780702799058   -1.09648514320504
H          -2.05745057637677    2.10450931867894   -2.17938879885652
O           1.11375954821591   -2.66074636193187    0.29233994151714
H           0.82712090833256   -3.49961417151646   -0.07330802005089
H           0.50168311852214   -2.00740145655883   -0.08148950670199
O           2.70419080251359   -0.49846350392650    0.99763542462594
H           2.00693650263813   -0.14314484429481    1.56551355742291
H           2.40641658506759   -1.39544577224531    0.77854841345711
N           0.36075995737677    2.40264423562568   -0.04418433094402
H          -0.56327503596297    2.27200722028881   -0.54389283806476
H           1.10615438232527    1.82639503940492   -0.58566523146495
H           0.60761210073756    3.38183829174583    0.04181966364819
H           0.27220116857405    1.94019014936757    0.87873564711917
