    26
        -50.46512689  Gyration_radius:  2.61371669509 Dipole_moment: 1.946
 S          -0.79128466535047   -1.71826566665315   -0.50768862682177
O          -1.01945822398217   -0.97731108255796   -1.72778297931694
O          -0.99803066123742   -0.86974441101060    0.66951244945919
O           0.48291019272756   -2.40164264340502   -0.45896568717698
O          -1.89553831689992   -2.85703388928696   -0.43787890235397
H          -1.43421994098196   -3.57458446369078   -0.01336931298754
H           1.47602171973176   -1.36441826922490   -1.37213835453889
O           1.73362406523530   -0.56146832345289   -1.87294864701056
H           1.05118031543150   -0.48334559833619   -2.54693560517880
O          -2.27369349008208    1.34335162136747   -1.72386497202988
H          -1.85033604796490    0.45777241861430   -1.65616115998518
H          -2.60405553010815    1.40096981776401   -2.62203074463207
O          -0.57275641944664    3.14622719656865   -0.74842796086389
H          -1.06681576937367    3.66612394758843   -0.11277719169859
H          -1.22768337873749    2.54232380914220   -1.17175059320810
O           2.28043834356908    0.58336346331285    2.33613527116563
H           3.08692718215313    0.08724047442482    2.18583647981093
H           1.61991153681486   -0.07124647882416    2.66170582548223
O           0.34891422411473   -1.17746695238295    2.92672732493686
H          -0.28372303936496   -0.92832595147022    3.60286118933104
H          -0.14647338334781   -1.16474448773881    2.07805124670974
N           0.82685957395750    1.00665930537882    0.10450470579045
H           1.31332501628744    0.55023654173206   -0.70594044957693
H           0.03097728215122    0.37851659983101    0.35590239399820
H           1.46797480469718    1.04837884980888    0.92809381844630
H           0.44500462000867    1.93843416250061   -0.17066952775316
