    26
        -50.45846124  Gyration_radius:  2.79977746941 Dipole_moment: 4.049
 S          -0.89477943167755   -2.82134331538913   -0.10236603989654
O          -2.00090064671716   -2.09438981274297    0.52320395579106
O           0.32828948984118   -2.73488100004606    0.66146305629397
O          -0.73299136215919   -2.43550614262471   -1.49677037258365
O          -1.32855994211521   -4.34678109914228   -0.11077639899635
H          -2.12479419406199   -4.31759049099236   -0.63206582028119
H          -0.00083221641008   -1.08170489591733   -1.84919251608957
O           0.50801886300563   -0.24226856650291   -2.02761373480299
H           0.91251446631989   -0.36466337930213   -2.88758546318123
O          -1.12671560093975    1.77312431270317   -1.13203413122283
H          -0.48461852878225    2.47226493709508   -0.89322458554413
H          -0.61963853117058    1.12895017941182   -1.65793932393386
O           0.73480880012520    3.46753918427125   -0.12878453381781
H           0.46775992934825    4.29549243316164    0.27183946775116
H           1.16519354241595    2.94112505003938    0.57621935860472
O           1.87457618658028    1.93283432119782    1.80365134042363
H           1.84727332648039    1.04448766501329    1.40021873707464
H           2.79431383609738    2.10052722952434    2.01366071629614
O           1.47944159403516   -0.41104044440349    0.50682886882137
H           1.36140841273882   -0.25711607783344   -0.44951822850408
H           1.22545854574350   -1.35632275055726    0.63667081636230
N          -1.09055200202171    0.27589357319245    1.01863460041290
H          -0.06130180632276    0.09141422495666    1.03074634244226
H          -1.56085027260157   -0.67014932260513    0.84961329113462
H          -1.40256848238553    0.68801349653941    1.89080855463782
H          -1.26995398536836    0.92209065095607    0.18431204280762
