    26
        -50.46810368  Gyration_radius:  2.56219591761 Dipole_moment: 3.963
 S           1.00307633616596   -0.88635059369338    1.63457607172282
O           1.56084233560780    0.21387654056581    0.84113277166800
O           0.77600121768421   -2.07964548113138    0.85245866734703
O          -0.16343751590248   -0.44927610196778    2.37470384482225
O           2.12132347808798   -1.26161202818684    2.69114460446058
H           2.28687418603522   -0.45159297861260    3.16494601377350
H          -0.94981319892636    1.03767045906456    2.49329950732218
O          -1.44179385334200    1.87957265319459    2.37798595813538
H          -2.19563134657166    1.83181601333356    2.96689244141910
O          -1.48870200160488   -1.36542891392855   -0.23055993477849
H          -2.18298102480913   -1.67933916711185    0.35138214523052
H          -0.64840777530765   -1.72371679620949    0.14512380689866
O           2.00631974428971   -1.14558210952091   -1.43752363885387
H           1.83090653121094   -1.99638960663016   -1.02123108038869
H           2.00986470778672   -0.52287570360540   -0.68958772571891
O          -0.29716111739427   -0.69153267098701   -2.77110854754969
H           0.60499526691797   -0.86600334094516   -2.42423445548643
H          -0.89642975814278   -1.09709174649294   -2.13456887709437
O          -0.47979253749853    1.93614405732594   -2.68393698469117
H          -0.47523689147327    0.96370213698579   -2.88189046355227
H           0.33740527503306    2.28153529277343   -3.04609728687374
N          -0.67509563075407    1.24067317981685   -0.12363047923094
H          -1.16763031157545    0.32861641820674   -0.21878304797258
H          -0.63413245184763    1.71110952384377   -1.06257522696010
H          -1.12928056579907    1.79466297966541    0.61921620834349
H           0.28791690212166    0.99705798422369    0.21286571800678
