    26
        -50.46402319  Gyration_radius:  2.50054679567 Dipole_moment: 3.435
 S          -1.85832476636557   -0.53309010784628    0.03403048197067
O          -2.94238592506822    0.24170005020608    0.57292678748350
O          -0.89586224007683   -0.99159865576735    1.02871373939859
O          -1.17731619621979    0.06213142478552   -1.10540721295421
O          -2.53164848144212   -1.86494885994654   -0.54568158901097
H          -3.41587426532620   -1.82520941184694   -0.19482569283776
H           0.08375903438668   -0.72494910560115   -1.84794300494493
O           0.92889031398826   -1.13934227318701   -2.13893071034756
H           0.71051262340893   -2.03998485334182   -2.38150611638654
O           0.47949742200522    2.03891566952344   -1.95202502787039
H           0.94727707445268    1.52566289832128   -2.61452702470359
H          -0.23569965344545    1.45738985410303   -1.63742628939127
O          -1.05774954923793    2.08156429039663    1.03547121179726
H          -1.35748125975767    2.76912733105983    0.43496705311645
H          -1.74571106852749    1.39571956336516    1.00671360684472
O           1.62237947440715    2.19309732784400    0.47703149828741
H           0.77739278137780    2.26354149308907    0.95416678018640
H           1.36517513215519    2.34037795379922   -0.45773240346695
O           1.15433840476057   -2.42192743212505    2.27612719255325
H           0.30837492167521   -2.08682728933764    1.94244822937849
H           0.99795119175786   -2.68571904614262    3.18362095779868
N           1.60582189023486   -0.41369126887137    0.38566923376452
H           1.68480498633573   -0.72931455097115   -0.59800815005811
H           2.16443900324887   -0.98619138290948    1.01754820028094
H           1.78950055295982    0.63758185271039    0.47016330052515
H           0.59793861835422   -0.56401549132676    0.65441494859678
