    26
        -50.44656700  Gyration_radius:  2.44581437383 Dipole_moment: 5.367
 S           0.90472863966019    0.98071020062286   -1.47609827342588
O           0.08322792152767    1.23470131037131   -2.60986096450528
O           1.15447248516524   -0.39967421211786   -1.16227339825658
O           0.26846314600039    1.67135600229157   -0.21802527058583
O           2.23280640442834    1.73313405534441   -1.55034697318622
H           2.79587663435856    1.29908796938422   -0.82255422594466
H          -0.68260933029795    1.40868096618513   -0.03026364950663
O          -0.99425352249981   -0.96576068225015    1.94129245044760
H          -1.47796866467997   -1.49373695253501    2.57784179137373
O          -2.14858858590052   -0.30060361246757   -1.94638000283944
H          -1.43515833725523    0.18222752991869   -2.38776724594437
H          -2.46706495703310    0.27381154999180   -1.24296582850442
O           3.29491657247199    0.31498829188512    0.27774659195987
H           2.78569551900393    0.45246904745010    1.10628086419008
H           2.86427735246255   -0.43850436809818   -0.14880812313754
O           1.34577736781954    0.62876258387108    2.12807331134854
H           0.66952910018021   -0.06341199007632    2.18927691776588
H           0.98145986623991    1.28167970198354    1.51765284723387
O          -2.07912397257000    1.02543068746849    0.61581013627219
H          -2.35138333177631    1.71375771719819    1.22650497648616
H          -1.75266469353139    0.26168462370530    1.16525577154385
N          -0.81629801838213   -2.25840440865266   -0.28761865811330
H          -0.89546253687804   -1.54499308637662    1.09747571655608
H          -1.52671993668479   -1.84881571396665   -0.89540351299929
H           0.06438912007850   -1.88789692507232   -0.63771490260593
H          -0.81832424190464   -3.26068030601335   -0.42713032561873
