    26
        -50.44896373  Gyration_radius:  2.45420519009 Dipole_moment: 6.265
 S           1.20049046651756    0.09682693801581    2.11195256015664
O           0.07662813684563    0.72686912744552    1.44153403050857
O           1.19410300892256    0.17668961848864    3.52447615609277
O           2.49773885079636    0.71571935360824    1.54624058710902
O           1.29750042826489   -1.35718570671340    1.61449176806758
H           0.40978169226006   -1.72302019556306    1.22504437930425
H           2.44754783548917    0.52016756163813    0.57529220929754
O           0.00223129495526   -1.13075036999373   -1.82731847079712
H          -0.00722993664996   -1.48258144389526   -2.71812600846007
O          -2.42142666430294   -0.07588171568873    1.18344217548047
H          -2.86099888010305   -0.03924325144276    2.03444728271620
H          -1.54772129109235    0.35317734123637    1.30767178334515
O          -0.82066927036728   -2.16617447549170    0.52616110072839
H          -0.56481130148283   -1.94927174230795   -0.39223083938213
H          -1.52752632848336   -1.52854909444793    0.75618454930457
O           0.47837244508271    2.36948921643890   -0.69359849181504
H           0.32741053958050    1.91427054075620    0.15206470389229
H           1.30021038588683    2.00954274175724   -1.03677592146327
O           2.26992035233576   -0.00859621613420   -0.95153362328993
H           2.91491800900787   -0.71663727915465   -1.00901561226215
H           1.40756624481603   -0.40372821067016   -1.22897234742076
N          -1.70751912924685    0.79612788866572   -1.66013315321634
H          -1.08209144748030    1.56932443117933   -1.42292962873041
H          -2.31411549969671    1.09293159075498   -2.41301901512966
H          -0.69144923370426   -0.36907730969387   -1.80237153299087
H          -2.27886070818233    0.60956066122444   -0.84297865103088
