    26
        -50.46890319  Gyration_radius:  2.40009736797 Dipole_moment: 2.620
 S          -1.27245074597675    0.53201780518870   -0.39275507075344
O          -1.94926828539373    0.52387200906031    0.88245370835252
O          -0.91337002711924   -0.82949696819418   -0.80139643137519
O          -0.10724782248905    1.41201503066607   -0.40931755096106
O          -2.27159135983226    1.07531039701259   -1.46822867188340
H          -1.73852983515197    1.13473578785730   -2.27912056451578
H           1.41067520610300    0.59263768584834   -0.07160701573738
O           1.31579135688983   -0.87928329455660    2.40337843051110
H           0.95269126834781   -0.00609325427074    2.67668476390134
O           2.14210489528959   -0.03583140933713    0.05622120241309
H           2.12652826448373   -0.58619959129620   -0.74791373244147
H           1.79768377183798   -0.67675184681403    1.55998133304362
O           1.31103794736932   -1.15616069314891   -2.30207703563992
H           1.19210493485043   -0.46860157117361   -2.96420014214876
H           0.46059736312864   -1.19327961615834   -1.83042391532017
O           0.00012689532510    1.44355834665180    2.49370166970510
H           0.47456289563766    2.03253431996387    1.90119175868018
H          -0.80689927393287    1.19828046523500    2.00399952440712
O          -0.07214707092585    1.38335156762132   -3.01967295939030
H           0.13665925985114    1.47489815770360   -2.06534611067099
H           0.12076896591623    2.23084388390599   -3.42617691574563
N          -0.87788750370304   -1.88033169069079    1.57410132410686
H          -1.07612543494292   -2.85760579174464    1.76087445250650
H          -1.60473767015733   -1.26141911408167    1.94102850863567
H           0.10908754860138   -1.54234961604792    1.98553407333697
H          -0.86016551399284   -1.66065097919969    0.53908535698324
