    26
        -50.46243673  Gyration_radius:  2.57673209292 Dipole_moment: 0.533
 S          -2.28231623188556   -0.91711359930769   -0.16967198506799
O          -2.94223747479799    0.27137133743806    0.27910606625533
O          -1.20342849143973   -1.33170822384765    0.74616543612630
O          -1.77059198126733   -0.84421815484419   -1.53315438056081
O          -3.34337024223276   -2.09606798615923   -0.15090622790997
H          -2.90132412383467   -2.85274017953732   -0.52751052085591
H           0.39973497804376   -1.55686195592692   -1.71134466399947
O           0.86473136354571   -1.45591100645583   -0.87514797174146
H           0.14180891681121   -1.47048293394762   -0.20735128185622
O          -1.09009468596049    1.67063686289081   -1.25622360661708
H          -1.92477088509446    2.14336617107775   -1.29496675967173
H          -1.32569492282961    0.73729211243125   -1.47741682786630
O           1.69699633470310    1.16270684076318   -1.23095111513741
H           0.86420158666360    1.58423192844139   -1.47168601597018
H           1.49585030654476    0.20998446375958   -1.17700754964418
O           2.12741119686044    1.33595504170652    1.39188111668832
H           2.47692370037909    0.42980344867771    1.50955567195638
H           2.16732128630355    1.47718231010565    0.41871364575838
O           2.89553745574698   -1.23995820346004    1.05222860555520
H           3.73867184170747   -1.34129918203254    0.60720233282811
H           2.21453727377046   -1.47733184798607    0.40522282623239
N          -0.46041161347269    1.12561052261950    1.35761412794910
H          -0.72406167442318    1.49749285199905    0.41647170017494
H          -0.72533024949952    0.10979982357174    1.32396109739259
H           0.61092070570498    1.23612504958787    1.49687949097070
H          -1.00101436004786    1.59213451843500    2.07833679899461
