    26
        -50.46819105  Gyration_radius:  2.43077692357 Dipole_moment: 3.473
 S           0.32256343777604   -1.84222210958243   -0.60621332335265
O          -0.07660668475570   -1.62668248091556    0.78071976018478
O           1.27520478972275   -0.84477871184402   -1.04785211692552
O          -0.83132418962838   -1.97554745463818   -1.47397646348924
O           1.07665371679085   -3.22922580468356   -0.65159322870615
H           0.34781708536026   -3.83858247883464   -0.61263397545423
H          -1.87701459099871   -0.75440773193971   -1.43147709267995
O          -2.44953637783308    0.05410249998749   -1.38447385520641
H          -3.19515879419717   -0.11592425191797   -1.96196050404806
O           0.66064284567352    0.01681529904053    2.94582543939150
H           0.49388526732404   -0.81649376307997    2.49068955190373
H           1.40220716804790    0.40851387268038    2.46921765451398
O          -0.00183271125769    1.30576593889060   -2.10497491305029
H           0.52793498995969    0.51415405926219   -1.90481071112725
H          -0.92485014216613    1.01995814854978   -2.06350289656777
O           0.41969631772235    2.45674730021850    0.25112605083555
H           1.24888591379503    2.02220329967855    0.52523315748245
H           0.32743354970626    2.25317582936511   -0.70940725858278
O           2.42025418946410    0.68666767444839    0.77493947154428
H           2.02427833095748    0.05968891702116    0.12797091435405
H           3.34407689612657    0.76869972054820    0.53397558338200
N          -1.33204559165340    0.70103383857248    1.02230775165923
H          -2.05396322236678    0.66017385055782    0.29033060022332
H          -0.81404338995917   -0.21674969360795    0.99961657888305
H          -0.62344622173774    1.49265121581959    0.78713340103534
H          -1.71171259185848    0.84026299642699    1.95379044382423
