    26
        -50.47045025  Gyration_radius:  2.42908972782 Dipole_moment: 3.173
 S          -0.14853658608950   -0.86753865126735   -0.38667918578639
O           1.06229803539580   -1.24379874679526   -1.09646374257143
O          -1.21443567017418   -0.43302645550972   -1.26985763210928
O           0.13922255746086    0.13127302495584    0.65145043630002
O          -0.71351229171867   -2.11607768774216    0.35228227810346
H           0.01707756742580   -2.51698385176178    0.90592875325750
H          -1.32844338640086    0.25530965318873    1.46277590504327
O          -2.28112110244313    0.34504243281515    1.68103466601106
H          -2.63866077204424   -0.54227785652299    1.60997123188126
O           0.26126525642209    2.64361196002082   -0.27299712701053
H           0.37116526221777    1.84582709705645    0.27935574092017
H           0.67379144102479    2.38091562847609   -1.11671249297673
O           1.27372790972422    1.15368708699431   -2.29613794291930
H           1.13975004411627    0.25329203990530   -1.94613465710355
H           2.12872112473682    1.14484243063209   -2.73167512071163
O           1.30306557033551   -3.06781567000963    1.67332386126861
H           1.67068233850244   -3.80529793939138    1.18148385533484
H           1.93788281932441   -2.31534972961382    1.55645415116314
O           2.69086227892488   -0.93957079779695    0.96404830277398
H           2.19331099935151   -0.21966799707409    1.36582990573458
H           2.27854785678806   -1.04851085654962    0.08270364868924
N          -2.20188052219096    1.82852758529575   -0.54141695943380
H          -2.92872335384250    2.30954023476278   -1.05803146653854
H          -2.50320935393814    1.52015897073059    0.40659928721604
H          -1.88854169924127    0.91645259747900   -1.00442062438422
H          -1.29430631357603    2.38743548764703   -0.45271508213698
