    26
        -50.47045022  Gyration_radius:  2.42934302591 Dipole_moment: 3.173
 S          -0.65441892558400    0.40735480153344    0.57356390086727
O          -0.11997097976584   -0.15793276199606    1.79816524557697
O          -1.95191965378198   -0.13823793229792    0.21249248551757
O           0.29512205150762    0.28748605222948   -0.54098624073189
O          -0.80457101688929    1.93064508317250    0.85802898393603
H          -1.26333494564067    2.35802417081212    0.07832811549728
H           1.62763021420056    1.14902021416655    0.01472704683448
O           2.36027487953057    1.50358297798832    0.56324756280990
H           1.96030204325733    2.18868844278275    1.10253816201279
O          -1.81232819159521    0.50294923961286   -2.34862561104744
H          -2.03018770514080    0.13102060851327   -1.46952559221063
H          -0.85717449642575    0.39986682450250   -2.41439195187776
O          -2.06086820613670    2.86771571199482   -1.20636084872537
H          -2.98941438904379    2.96299154689418   -0.98350586917887
H          -2.00027792014883    2.07621292229963   -1.80016988673838
O          -1.03860214062835   -2.66722803338962    0.17753343775392
H          -1.39364040744161   -1.76627068467371    0.29358943267713
H          -1.75563474743014   -3.19013724136685   -0.18748477684194
O           1.46096907915895   -2.11920822232626   -0.71017238931155
H           0.66031405811869   -2.59821800793557   -0.42623637457533
H           1.11679949762659   -1.23127277654042   -0.92627538018035
N           2.29207909961545   -1.00111219053092    1.49465839086244
H           2.15135365000075   -1.60264987331474    0.62144848820457
H           2.69701930662012   -0.08423281600359    1.21195312180498
H           1.29464090536500   -0.74584968135652    1.78483110198034
H           2.81583893066521   -1.46320838463816    2.22862944500788
