    26
        -50.46027726  Gyration_radius:  2.45762945178 Dipole_moment: 2.417
 S          -0.72488376533967    0.50532818137342   -1.79861707909487
O           0.30231582034751    0.29463760657980   -2.78303766876911
O          -0.27873645863363    1.25574927648038   -0.63171192046709
O          -1.41774120301270   -0.70953299115178   -1.37861458492767
O          -1.83634551448004    1.40001477280460   -2.50243038365081
H          -1.38469257656229    1.72959689549461   -3.27291868256011
H          -0.55117675369722   -1.95229870634338   -0.73378693666138
O           0.01651864730425   -2.55370243763548   -0.19535422904925
H          -0.39370601823041   -3.41892324337534   -0.23256767758685
O          -2.77920778999245   -0.21695237186442    0.87658637311387
H          -2.42390565048270   -0.43348707307624   -0.01104079987560
H          -3.16024569224783    0.65935954272181    0.80058961447179
O           0.56928593263961    2.39132790657063    1.84399092987800
H           0.22698072888511    2.39491109318382    0.94394125540061
H           1.40578916399620    1.90714882946944    1.79236022372599
O           2.50297265655778    0.37278405986080    1.50740409792716
H           2.35186123005535    0.05220331803649    0.59246608194776
H           3.44636858410136    0.51943388373483    1.58006585136848
O           1.98986619064680   -0.67634957303266   -0.92695447214262
H           1.58722571856609   -1.54409642500252   -0.80305164890052
H           1.51076436916529   -0.25887671520799   -1.66394668839843
N          -0.18151608467233   -0.36109794673834    1.43625675061889
H           0.43112604304140   -0.02457004560292    2.17984645986431
H          -0.09564624251657    0.31151685970543    0.61712618354493
H           0.08242757207963   -1.30154874003878    1.09946801643039
H          -1.19569890751490   -0.34257594700972    1.66393094377163
