    26
        -50.45698509  Gyration_radius:  2.61120564782 Dipole_moment: 8.237
 S          -1.34627234842864   -2.43957333379378   -0.44867139094043
O          -1.20058593407882   -2.72137225692347    0.97532380190089
O          -2.09265868040977   -3.38373948600757   -1.21357475289289
O           0.18035821540625   -2.55702485787901   -1.01999401412967
O          -1.69501244222486   -1.03580244371862   -0.66041148169916
H          -0.66785534197809   -0.11263405073941   -1.58504985123652
H           0.02682328289630   -3.13515800650232   -1.75964138018677
O           1.81896727046046   -0.40563092114882   -0.25123856051308
H           1.87200819560961   -1.34166874859689   -0.46813660842064
O          -1.86056574665385    1.06209954945972    1.00051013295604
H          -2.08638556887700    0.36312242565737    0.35641548746733
H          -1.41578721521874    1.76124979934150    0.48950668496582
O          -0.23441479184363    2.82331319852569   -0.36572299676726
H          -0.38385131693755    3.76820650923096   -0.31880140005725
H           0.64558602582217    2.65069443437792    0.03529280789443
O           2.22286641057846    2.17939085849044    0.57113437994111
H           2.24986398215691    1.23487682050035    0.34538371980051
H           2.95797840806908    2.58582180098148    0.10902218709827
O           0.04255733494330    0.48133646085502   -1.91810654418684
H          -0.19608774546493    1.37042449259713   -1.62237368701405
H           1.20059876759885   -0.04238953631262   -0.95696758719649
N           0.01409285665964   -0.61152396972524    1.76846846859443
H          -0.48837911643067   -1.53581196664206    1.51749457612765
H          -0.71168758831492    0.15289110761882    1.61914634178490
H           0.35785653292799   -0.62526654843777    2.72206793943764
H           0.78998656374299   -0.48583133119784    1.07892371728102
