    26
        -50.46976730  Gyration_radius:  2.44347453591 Dipole_moment: 2.972
 S          -0.73782483095399   -1.57773145964814   -0.64867102694719
O          -1.90877671798921   -1.38002132734386   -1.44953641651554
O          -0.97165461829723   -1.40221354063099    0.78642595460113
O           0.39049286818164   -0.73233783737187   -1.06734381330678
O          -0.27197049357390   -3.06774354406910   -0.85015423401504
H           0.52568677262204   -3.17924332321291   -0.32513132521977
H          -0.28623543449084    0.88827007159808   -1.27279667362483
O          -0.62987177061766    1.76905061318579   -1.03174600653760
H          -1.60045810501232    1.69024793222004   -1.13952800891064
O          -3.16111979989776    0.92693488818856   -1.08685291036924
H          -2.80443994847401    0.01705172417353   -1.17901246783357
H          -3.81385869667140    1.02232573436542   -1.78271039801497
O           2.32902009858734    1.25876966435785   -0.86590430441765
H           1.80749389724473    0.48179336091799   -1.11549792842453
H           1.80448522905641    2.01625076509295   -1.13861552497255
O           2.24955361548102    0.68238189970827    1.76132545241758
H           2.50834623200413    1.00339180434045    0.87128393337546
H           2.32096278047812   -0.28625693220930    1.70325706738734
O           1.64986290980441   -1.90887096761403    0.95468703732488
H           1.44687902016359   -1.43286123753144    0.12888743787128
H           0.80193223965098   -1.94163316848162    1.41863198085292
N          -0.33978464334848    1.05012650927676    1.49246371567758
H          -0.45605229704438    1.54656929339566    0.56195618866821
H          -0.69461971105000    0.06988568056234    1.32354851888307
H           0.70476251311128    0.97895889275517    1.71997334809533
H          -0.86281109898573    1.50690449398020    2.23106039396788
