    26
        -50.46801749  Gyration_radius:  2.48621704281 Dipole_moment: 2.928
 S          -0.98734707797911   -0.60362215876722   -0.61762317190394
O          -1.46974007437169    0.60943137354975    0.07769233056909
O          -1.38125882685522   -1.80098372694430    0.07894546317864
O           0.46132482949138   -0.51190017643501   -0.79680546952531
O          -1.64006458249981   -0.61976278361909   -2.02193523192179
H          -1.13856085888077    0.05101163017116   -2.55452204464405
H           1.35645362648112   -1.67699277728751   -0.02635057872833
O           1.90789816055966   -2.27153965117044    0.53488457817672
H           1.95164902541718   -3.10517412643573    0.06495553139545
O          -0.48160062993161    1.30857724764428   -3.34049218023961
H          -0.53404591252494    1.98609426723089   -2.62860667280397
H          -1.03192799433678    1.61860325282216   -4.06293738069284
O          -1.03087120307642    2.83364100395975   -1.22537964156258
H          -1.17094071354868    2.01867626876373   -0.68637164394132
H          -1.85755236228478    3.31801219980663   -1.18761915542322
O           2.28502977744975    0.66773827711586    0.76001426953471
H           1.72070326560320    0.45089501527524   -0.00936064622999
H           2.80015546780242   -0.13189543628879    0.91004373046494
O          -0.08307403989519   -2.08912672754743    2.35991277597285
H          -0.72968903153621   -2.13985389255902    1.62158768427202
H           0.76243823879105   -2.32471309762704    1.92984525280071
N           0.05812015486335    0.50602536091773    2.19574108020320
H           1.01249781974348    0.69569116290364    1.78385052830870
H           0.00277078399438   -0.54026773275281    2.44156205942237
H          -0.14422050064810    1.10369219756155    2.98932893884145
H          -0.63814734184858    0.64774303971976    1.40963960446929
