    26
        -50.46858859  Gyration_radius:  2.44377441831 Dipole_moment: 4.167
 S          -0.15053510656611    0.71397088143704    0.86316535705486
O          -0.07861648099250    0.05958229991299   -0.58187800498144
O          -1.18076785949629    1.72094664529320    0.81746685192482
O          -0.50888637786980   -0.40655494664804    1.73812673019010
O           1.18795102113962    1.21213666430675    1.12447931129070
O          -1.13444174628090   -2.40059958554328   -1.31295948691838
H          -1.85190633671773   -1.98143843275853   -0.78577666169010
H          -0.74858366256863   -1.66897169731825   -1.80550975742924
O           2.69733567021746   -0.85569529599767    0.52411800687444
H           2.16469576955740   -0.05695739681281    0.75256459794257
H           3.54803205782326   -0.73569737964052    0.94867631584308
O          -2.69525865125557   -0.88438829733545    0.28902957615444
H          -2.00585064607063   -0.72003674263164    0.95839646883737
H          -2.95854605967989   -0.00911169799186   -0.00331843204384
O          -0.71089956720624    3.70279873297180   -0.87126791098652
H          -0.91500589615726    3.06310091005192   -0.15422161269262
H          -1.55123204142868    3.93889797475101   -1.26683860457641
O           1.28813664368830    2.03013114065293   -1.48514351992287
H           0.43547791013780    0.73996355736202   -1.10857243237917
H           0.63821675301935    2.76284110117895   -1.47748311549098
H           1.68918663692387    2.05038698327521   -0.60456660459104
N           0.58384998945744   -2.49539800726341    0.68939505819559
H           0.11216539228379   -1.72200004349758    1.25511058374068
H          -0.02523144255855   -2.59657685935225   -0.18004099198569
H           1.51882602375431   -2.09935045964062    0.46529425505439
H           0.65188801686366   -3.36198006879501    1.21175402258398
