    26
        -50.44737379  Gyration_radius:  2.52707719672 Dipole_moment: 5.707
 S          -0.04911076093142   -1.19177642636705    1.52933482462452
O          -0.13788047696775   -2.53779525672253    1.07736237446258
O          -1.11938942304925   -0.33082860149861    1.07671395974286
O           1.30533739260219   -0.55153305724929    1.11231162209302
O           0.06345097376353   -1.12473685754853    3.05181244185146
H           0.39110415705625   -0.18320588006017    3.25891441370034
H           1.49518282819658   -0.57536371476765    0.11794425479994
O          -0.51287058609359   -0.22304973748299   -2.73598373004085
H          -0.54045835941893   -0.56395113952982   -3.63108158899720
O          -0.23102809426969    2.17119024159428    1.14643771558141
H          -0.74025303745731    1.34012936721664    1.11030084049805
H           0.17749643409796    2.24781516158645    0.26991526641469
O           0.46156819487597    2.14181511654812   -1.58270026814961
H           0.07979967441537    2.95513855919055   -1.91681772049496
H          -0.04471990012912    1.41335547729955   -1.97957810358859
O           1.02184281777328    1.22720408327551    3.27762264594390
H           0.55710595201575    1.72305703109238    2.55607220073917
H           1.91257219083257    1.07006668244925    2.95338141826437
O           1.81287357329506   -0.36546779744993   -1.38339276585661
H           0.98404661683256   -0.45611826282949   -1.90250952975322
H           2.01613023586241    0.57647687861566   -1.41375724660422
N          -1.85792396653508   -1.84753585772310   -1.18837305732040
H          -1.27754913534713   -2.63446157890865   -0.91629452317883
H          -1.88163599552507   -1.24952289153651   -0.36336618192578
H          -1.08945440532591   -0.83686694134506   -2.17639178640754
H          -2.79623687031944   -2.19403460765468   -1.34787748657567
