    26
        -50.44586550  Gyration_radius:  2.5070534441 Dipole_moment: 4.911
 S          -1.28968952575698   -2.24578145949726   -0.07020037179816
O          -1.87522545211929   -0.98024311035502    0.30214090814810
O          -1.78504007771902   -3.40604175260037    0.56460512188273
O           0.24646166815016   -2.12917777657493    0.09433733169092
O          -1.40788838375965   -2.41888292184822   -1.61701783101373
H          -1.19651504368231   -1.57132596995232   -2.03034755568156
H           0.52443651969977   -1.47366532314421    0.84312632794964
O           0.02389240910536    2.55879529267127   -0.48228604285612
H          -0.10049721148638    3.50709760027680   -0.52423363909935
O          -0.75224385190269    0.25415925667835   -1.75040096877521
H          -0.48187074699353    1.17324139099844   -1.57748568480132
H          -1.24277381074787   -0.00386118106819   -0.94873707903313
O           2.23188084332825    1.03871902024697    0.13368564475836
H           1.56595896334179    1.70400273143789   -0.11583552288134
H           2.28708080969737    0.43184007230137   -0.63675936575249
O           1.10027922772795   -0.51626448134846    1.83009521025745
H           1.80193837513655   -0.97430827840399    2.29764259568303
H           1.56302172381308    0.14725975925703    1.21029376963198
O           1.80804629747951   -0.75114189170554   -1.82928627611659
H           0.93363558701853   -0.36834850941061   -2.02419223280033
H           1.62584587964713   -1.56778895495747   -1.35321695137516
N          -1.17950755528007    1.51112015517305    1.63708893845937
H          -1.86853440078574    1.99379006586101    2.20041897207796
H          -0.46061336935239    2.23170490808101    0.33459675270490
H          -0.44909670393011    1.17720603811647    2.25594961760532
H          -1.62298215062461    0.67789531971804    1.25601833113785
