    26
        -50.46336268  Gyration_radius:  2.49320883864 Dipole_moment: 7.915
 S          -1.60932739590499    1.32065628496374   -0.10281689917096
O          -0.64479627783695    2.10163317906921   -0.87289429476527
O          -1.22855963290658    1.09921435221205    1.26211930600717
O          -1.93718845254507    0.08478505700220   -0.82097207977834
O          -2.94007446081459    2.17211876233690   -0.08515456737051
H          -3.06636704093111    2.36219531578765   -1.00837412762347
H          -0.77081502292699   -0.83144134215494   -1.40927533781138
O          -0.00272715525955   -1.36425681723372   -1.75013384278102
H          -0.37254383280333   -1.99420994191948   -2.37069849022529
O           0.36507192050978   -2.23527670914815    0.93300538850289
H           0.38027179837789   -2.07138749717754   -0.01938069039360
H          -0.58036260490909   -2.17746039951445    1.18283560879861
O           1.10649724245906    0.04264950422735    2.15672926351130
H           0.90697753033122   -0.86708631270933    1.84084709778370
H           0.30205337172147    0.55358021758971    1.96474639371314
O           3.07801990326897    0.59987557461622    0.60977638729992
H           3.62554602233198   -0.18361475069241    0.68750865519321
H           2.35135479971512    0.48283965408484    1.30039508641565
O          -2.21357271200183   -1.49966910004236    1.34908912693775
H          -2.08558931733168   -0.81504081835595    2.01327539645748
H          -2.26434593979617   -1.00801185044666    0.51154831620266
N           1.53816482370574    0.84504479451030   -1.49105984827895
H           0.69286819946112    1.43516548751888   -1.20343782431100
H           1.15757998845200   -0.08702060469206   -1.73474123239797
H           2.00267755720425    1.27303895983937   -2.28479064772702
H           2.20918665842628    0.76167900032258   -0.65814614418237
