    26
        -50.47114536  Gyration_radius:  2.41067703075 Dipole_moment: 3.622
 S          -1.58257176995604   -0.94129594264689    0.79363908072742
O          -2.01143547768716    0.41622567232525    0.49995146305409
O          -0.53686265411318   -0.98314530196638    1.80122764844266
O          -1.23335397875152   -1.70320743900147   -0.39387160117774
O          -2.84673818806290   -1.65966425275338    1.42108210656839
H          -2.54523847148439   -2.55714288925164    1.51264699117920
H          -1.58482255542059   -0.64686031628728   -1.91946347681632
O           0.80991216633857    1.06865829043354   -2.14585553678357
H           0.96056288073437    1.56384557382748   -2.95184037954014
O          -1.67325794805147    0.30297502461087   -2.09698118243442
H          -1.99027143044867    0.63121127708859   -1.23476509788611
H          -0.16113411975072    0.81697879428271   -2.15544848702022
O          -0.40808356838823    1.74853833076710    2.05897590992721
H          -1.13263108123785    1.42195081282087    1.47886431254846
H          -0.24386528466688    0.99141980608378    2.63395494014601
O           2.02456304200004   -0.98059939091708    1.08662918737049
H           1.13705943507966   -1.10650891341205    1.48501986831913
H           1.94956031409662   -1.40293558747916    0.19781050437291
O           1.28189307932834   -1.65292886723316   -1.35751668642568
H           1.25768849942438   -0.80496775638359   -1.82083125697223
H           0.36591954217018   -1.81661728525520   -1.06170047347588
N           1.64791704555748    1.48794314063972    0.42318075808323
H           1.33778553782850    1.45150821135998   -0.56727491116696
H           1.93419068330227    0.47622592601136    0.71730807752151
H           2.41422247335592    2.14116706392357    0.53964140766105
H           0.82899180881696    1.73722603840521    1.05561684377527
