    26
        -50.45119181  Gyration_radius:  2.78937967748 Dipole_moment: 5.521
 S          -2.26976456363661   -1.07222654364789   -0.69144031289430
O          -1.86202316308099    0.27734055589364   -0.40285432728193
O          -2.28857004302385   -1.92181405361636    0.50992402203340
O          -1.50448162565363   -1.71050946027310   -1.75215868730263
O          -3.76880365476681   -1.01214413481656   -1.19692901135689
H          -3.93695186385573   -1.91301671180838   -1.45601852099769
H           0.01684319638181   -1.88155569260094   -1.38356816189442
O           0.94378695869180   -2.05255358042416   -1.05228497026626
H           1.29482457789008   -2.75080091278678   -1.60705396449310
O          -0.00192378579077    0.87153837410699    1.36048840354919
H           0.11789106579385    1.84823113067794    1.40056530286248
H          -0.73977036304708    0.73721679456137    0.72398186569706
O           0.30646316904845    3.47406457409471    0.87640362885169
H           1.01518237077367    3.38239189651987    0.20108037677534
H          -0.49085506971123    3.68695451997127    0.38758022912933
O           2.22758041040951    2.96496848427382   -0.95869939810869
H           3.10231056164517    3.27759039936127   -0.72361800285826
H           2.24620256519890    1.99083851451771   -0.83157169480415
O           2.13911470449883    0.37311057073759   -0.24108536402435
H           1.82160116633078   -0.36477596922169   -0.77649194401636
H           1.40942334477095    0.57729656784396    0.37905307646849
N           0.06859896971104   -1.77261805766308    1.47727809092021
H          -0.96966932359244   -1.89333024710535    1.16864399312421
H           0.62791732075854   -1.98918106450202    0.62457108121708
H           0.18196372305857   -0.76186268947523    1.70131683809597
H           0.31310935120244   -2.36515327460986    2.26288746157347
