    26
        -50.46342625  Gyration_radius:  2.41968536262 Dipole_moment: 4.778
 S          -1.84682344137347   -0.34183485294075    0.55124402711229
O          -3.09178407341507   -0.69851382339028   -0.05253485671252
O          -1.86474512140023   -0.08379392551167    1.98027393570518
O          -1.50245922038960    1.13790601301415   -0.09820640833588
O          -0.70500707189377   -1.15058098900719    0.17085842865160
H          -1.24336278780027   -1.76743105887220   -1.35062144874512
H          -2.37518978891282    1.51967745654037   -0.10818071290116
O          -0.03974482328833    0.41994724787771   -2.40072163852084
H          -0.57984739435545    0.76531080314145   -1.67780971561083
O           2.24788846927306    0.38550035735387   -1.10205919224450
H           1.41372367474712    0.31221803206814   -1.64099078750325
H           2.95517259242911    0.54528529385636   -1.72802206258090
O          -1.60559596787457   -1.78831759016976   -2.25396403335843
H          -2.54641115922646   -1.63539112501030   -2.12968971042139
H          -0.46439676562926   -0.43104415410068   -2.62572533705196
O           1.06872218755890    2.13569787063315    0.62409497393754
H           0.17245893732674    2.08251672527853    0.26847395398027
H           1.62275482413550    1.61953125717214    0.00416402811045
O           1.84235715078752   -1.52649622549021    0.85466746555548
H           0.95480371596187   -1.74320502195346    0.52158904353192
H           2.20728742245955   -0.93739118467638    0.17121827342978
N           0.68299091008440    0.23692970941217    2.43683486888141
H           1.21384316172656   -0.54886841193221    1.94823647283822
H          -0.36113114395487    0.05497188443650    2.33697923357775
H           0.94585563232527    0.32482299803376    3.41244809561033
H           0.89864009067596    1.11255269420215    1.88744313307447
