    26
        -50.46900213  Gyration_radius:  2.44542263362 Dipole_moment: 4.374
 S           0.06162319266794   -1.69227600256739    1.03817942420849
O          -1.27292793878751   -1.08446891980738    1.09953153481386
O           1.08967168275742   -0.70238752275122    0.80670894443190
O           0.10134722932812   -2.81302919633618    0.12904063882443
O           0.33421236964610   -2.27131291438177    2.49051360442972
H          -0.15247571970582   -3.08934922499870    2.49897655853440
H           0.97918147590694   -2.24965196329966   -1.16574689121342
O           0.08779015426080    0.28217916595492   -2.64118633998275
H           0.00634165872795    0.20451522600063   -3.59249204093372
O           1.51988768104936    1.62399095940550   -0.54083371896119
H           1.20754496274277    1.37304877002404   -1.41860713510076
H           1.48391994932011    0.80965416393297   -0.00905425262721
O          -0.59381384008342    2.69265420447203    0.67969142341432
H          -0.52850418890354    2.22848775030661    1.54411138779055
H           0.29119164966728    2.56918908660186    0.26794887212488
O          -0.27638692848993    0.88039888712599    2.63984746868162
H          -0.80031998489851    0.16287556126337    2.24598056714354
H           0.63483759582493    0.59907862516832    2.50975119256774
O           1.52890961763655   -1.71469434639993   -1.77970916898353
H           0.61904192942476   -0.51050421642024   -2.34475197425628
H           2.19843127887359   -1.31983711215835   -1.21328844331727
N          -1.72755498699792    0.80330820553381   -0.67027354984660
H          -2.69949501585916    0.92159000540302   -0.93297730152837
H          -1.13080255201893    0.62292203080869   -1.50147694110438
H          -1.34259438835217    1.68010769415489   -0.13945033534763
H          -1.61905686363126   -0.00648890707465   -0.00043355358341
