    26
        -50.46854478  Gyration_radius:  2.52574950221 Dipole_moment: 1.458
 S          -1.57116452853953   -1.02403839378132   -0.10131143890091
O          -1.71868512566754    0.41664697991254   -0.18915566166121
O          -0.34231677998089   -1.39133059381067    0.59339867096146
O          -1.70013948587874   -1.70940235000188   -1.36929104837433
O          -2.77046515423940   -1.52299878362450    0.80382769301670
H          -2.73633505088679   -2.46571952730202    0.68213012294529
H          -0.42610598819400   -1.29386124084129   -2.27383696605896
O           0.36510244286610   -0.98756592334455   -2.78329497895986
H           0.23745119652497   -1.29889376726443   -3.68115012613854
O           0.20102641344587    1.53501629737290   -1.71086224416998
H          -0.64798764093918    1.33528412799387   -1.27650390122923
H           0.35255885501233    0.78416451423529   -2.31033409124546
O          -1.33317598982759    1.57363352980388    2.15767937515157
H          -1.48750681215199    1.09807061058994    1.31259116487835
H          -1.94733887397327    2.30980824863580    2.15433514237086
O           1.26726304243077    1.96898798304760    2.66731068485713
H           1.43856469176519    1.56051371832916    3.51711327123585
H           0.29378130915470    1.91592702005532    2.53323446923381
O           2.16897962831991   -1.77830079076554   -0.78932891060886
H           1.75123074177887   -1.56242980463625   -1.63708322650261
H           1.43846331273879   -2.07036124125824   -0.23002356367769
N           1.46226876225871    0.54153145859417    0.39866964077134
H           2.26298584137851   -0.02767331524963    0.09587223751854
H           1.10726191763700    1.11275840353009   -0.41664440235131
H           0.70251838656439   -0.15347725669325    0.61417699322653
H           1.63176487842510    1.13371011640966    1.23848107377674
