    26
        -50.45604564  Gyration_radius:  2.40425084485 Dipole_moment: 5.348
 S          -2.01662509551289   -0.24085876788954    0.13330437847195
O          -2.40847988220351   -0.28641525452489    1.51456782344042
O          -3.03877234575491   -0.30123599073457   -0.86579928674282
O          -1.19270920330785   -1.66332219157618   -0.11019858104579
O          -0.99781805756869    0.76914695823368   -0.12494446621533
H          -0.69910621438113    0.73605294520900   -1.72546497107182
H          -1.94396531395985   -2.17378024353541   -0.39481419232664
O          -0.33974040241397    0.70774128683800   -2.64384229380498
H          -1.08930427462208    0.50157668390372   -3.20400999889993
O           1.27481697123443   -0.97357505039744   -1.20742942340739
H           0.44675828838248   -1.31059471653277   -0.83152318675952
H           0.97813669199817   -0.42492935391390   -1.95503419249811
O           0.53171648095571    2.88262298448990   -0.78344037383866
H          -0.28972027417027    2.51612547534157   -0.42202076829572
H           0.54812248489385    2.58000290577206   -1.69886659388930
O           0.02014463330949    0.11583310184513    2.48969284781167
H          -0.91265955775789    0.07520723526015    2.18339271237200
H           0.30721922019073   -0.80809909559251    2.56725818590659
O           0.84159343748119   -2.40362180064139    1.68140272524407
H           0.03759287545427   -2.33733370483819    1.14764973071401
H           1.56242216585763   -2.55275735731459    1.06570973815987
N           1.70718618298243    0.92570814249250    0.64460997734621
H           2.63199338716537    1.04204318440906    1.04383384459927
H           1.67544510412676    0.14813610044423   -0.06414831908132
H           0.98603089176113    0.68208693201468    1.40546504648146
H           1.37972178585108    1.79423959123982    0.15464964732399
