    26
        -50.46879236  Gyration_radius:  2.41734118025 Dipole_moment: 5.467
 S           1.18940174894762   -1.21814978462165    0.18772959376176
O           1.73915115871337   -1.15895118724706   -1.15001401079414
O           1.40803432700887   -2.44957353140550    0.90567475330202
O          -0.39589561428529   -1.11750312915464   -0.05929104223165
O           1.52777002188402   -0.03030088388006    0.96904235599002
H           1.93182251270644    1.10463340554817   -0.13376406331851
H          -0.79253777427905   -1.35859170909054    0.79025918008029
O           2.04212888261635    1.58468530442491   -0.99015429611081
H           2.42530502399247    0.90930494578621   -1.56154411004849
O          -0.54787279888695    0.66494481190431    2.43717756959041
H          -0.79149998297768   -0.20158407604261    2.78424683108349
H           0.30879804008256    0.51475120288532    1.98325846987933
O          -1.97975981447362    1.72978713532672    0.51059143004772
H          -2.16550638244311    2.60572053685506    0.85325676931034
H          -1.48269641418654    1.26721206934975    1.23739698668615
O          -0.63716392970007   -2.13409223946255    2.44278647181386
H           0.23938974121291   -2.34034656632167    2.03220991818125
H          -0.99404285747589   -2.97148731336713    2.74463002241931
O          -0.28030741534764   -0.82864789689536   -2.77930970253974
H           0.54633335656100   -1.01813592974693   -2.27041038292918
H          -0.93220153786925   -1.42882734238817   -2.40997945562127
N          -0.48886093759530    1.59352316353672   -1.71262259940366
H          -1.09860220615592    1.61152756263830   -0.85335928909177
H          -0.53729017476873    0.63871882386273   -2.17259403609390
H          -0.76603701995385    2.31905823992743   -2.36518000674295
H           0.53214005663807    1.71232440758245   -1.42003735723839
