    26
        -50.45943897  Gyration_radius:  2.4824817075 Dipole_moment: 7.988
 S          -0.89068227887760   -1.58790742687046   -1.34112680473480
O          -1.19521730852877   -2.69265294534479   -2.18745451131839
O          -1.31013859105949   -1.70226376437419    0.04831777304560
O          -1.79510898712387   -0.36577603897243   -1.93578369198529
O           0.47789769329642   -1.08240823018467   -1.42525360518324
H           0.39843068997679    0.45093459438351   -1.23111687960685
H          -2.16542113028327   -0.86271248868107   -2.65641951056302
O           0.30603603686234    1.43524288659228   -1.07056793984504
H          -0.40385256823567    1.71004652209673   -1.65376415335023
O          -2.79657728034483    0.35256892770176    0.69766669334542
H          -2.35652135226928   -0.51360885210645    0.52495607100748
H          -3.07060923798208    0.66008582918913   -0.16922260505780
O           2.81986992017721    1.60804489757866    0.07123319518026
H           3.56328104165184    1.75433163189008   -0.51561440631921
H           2.01775894418020    1.69008180117662   -0.46651055879394
O           0.39428129521311   -1.18683128735755    2.06042268919582
H           1.27166533504785   -1.27397039722197    1.60611093737525
H          -0.24462554605288   -1.59921406943898    1.44686394818205
O           2.46808392154824   -1.13680509406188    0.44633743853836
H           1.89117899694826   -1.26188668426450   -0.32624390067626
H           2.73085047332217   -0.20059659978635    0.43103894288186
N          -0.41684341492989    1.19716670963992    1.54622670562521
H          -0.00625198950668    1.43217770105650    0.62009708664044
H          -0.00699086687728    0.22448272967020    1.86306036969052
H          -0.23994890242063    1.92172718696536    2.23197729712651
H          -1.44054490358456    1.02974246078811    1.38476940951641
