    26
        -50.47250225  Gyration_radius:  2.48729013013 Dipole_moment: 2.858
 S          -1.61138703163146    1.09727770505313    1.15926376152310
O          -0.62753167851153    1.57078886938234    0.20445539514885
O          -0.98796586652415    0.46126143027569    2.31325082053018
O          -2.63819852596178    0.26226725574586    0.56563424912046
O          -2.35411605713863    2.38681608483375    1.70248219901508
H          -3.08137583800583    1.99469680051197    2.17338859209583
H          -2.03532458640359   -0.98371152874879   -0.22398833718967
O          -1.64118710186435   -1.71779917422893   -0.76437062293021
H          -2.30728731632098   -2.40585470646221   -0.79987305426398
O           1.01072424506396   -2.12428698615090   -0.24125065911730
H           1.42351570697910   -1.59075193287364   -0.94407191843367
H           0.05173268794164   -2.08411558381685   -0.41756972932021
O           2.06942239368534    1.53841602560589    0.09692197635373
H           1.13621775154346    1.82129118232835    0.09724538521181
H           2.17118173693220    1.01816550039680   -0.72116699561647
O           1.85487701364330   -0.20384324559161   -2.02710855935063
H           2.28185968100685   -0.19223723656849   -2.88387189684021
H           0.90490481114182    0.07298786675614   -2.18019000124948
O          -0.66063110820548    0.44475279630804   -2.21770536882805
H          -1.12477931753370   -0.37617133391393   -1.99721410644684
H          -0.73898274806928    0.99286952376006   -1.41108658899254
N           1.39881249991651   -0.40904241269386    1.72873348950873
H           1.96676204312778   -0.68481537339772    2.52134133537131
H           1.83017984498476    0.39836386617578    1.18489123541426
H           1.26877993897597   -1.20656049234458    1.03913378145135
H           0.43979682121550   -0.08076490036676    2.04272561783715
