    26
        -50.46457891  Gyration_radius:  2.67663880142 Dipole_moment: 5.263
 S          -0.08653618952496   -2.26158242415333    0.56394471719580
O          -1.35872121745092   -1.59049243016454    0.45007776232873
O           0.77855081720891   -1.67874281513572    1.58861312035476
O           0.61965066590166   -2.38638266009875   -0.70222229556663
O          -0.40110283540659   -3.73825739432095    1.04652755969359
H           0.45993768869298   -4.14294595002443    1.03458163423889
H          -0.31560656263399   -1.53566252390630   -1.80067827286542
O          -0.97183768365837   -0.90699348679896   -2.17606765779011
H          -1.75189766602213   -1.06566760456070   -1.63257898168662
O          -1.53482087242773    0.98190412771536    1.18045118003160
H          -1.67918765521209    0.03180647188536    0.99889337411566
H          -0.97348555173884    0.98681735546883    1.98115928643044
O          -0.14671205510682    3.77411114203709   -2.09209948467231
H          -0.65376961752228    4.38235469112868   -1.54977168140354
H          -0.44071778915359    3.87958530012129   -2.99914336147333
O           0.35275286765660    0.51531889457224    3.04980908450771
H           0.46880146066823   -0.36614782520335    2.64069569017912
H           1.22292352378774    0.91795114448052    3.04921398371263
O           2.18441355171751   -0.18643845665564   -0.05814171242286
H           2.28901812155694   -0.83385068938247   -0.76261446746917
H           1.74999952353000   -0.70359812668390    0.65575826630790
N           0.04798053976944    1.21126033738957   -0.90566481925463
H           0.12514711797662    2.12574077668152   -1.36199372717374
H          -0.36378128502353    0.48803055853066   -1.55178660082001
H           0.97579521466941    0.84334227454413   -0.58985247508806
H          -0.59679410226561    1.25853932253483   -0.05711011140588
