    26
        -50.46726185  Gyration_radius:  2.48467268709 Dipole_moment: 4.574
 S          -0.30269905623440    1.00648700814793   -0.53984691395456
O           0.66502768961349    0.64553310805780    0.51524563851742
O          -1.58705689187904    1.33676350082498    0.03548765206790
O          -0.40846857336190   -0.08546962902331   -1.50898471226971
O           0.23776635679727    2.25438142368771   -1.25876650720195
H           1.18676532583581    2.04004893518509   -1.51220549467521
H          -1.15466046988049   -1.19921651116415   -0.63398557230782
O          -1.57687749509625   -1.83512054400591    0.00158807003174
H          -2.51374090037725   -1.80653250418371   -0.20160561733809
O           2.60613698168468    1.59859375363433   -2.01394305402122
H           2.77525815143416    1.96239011638100   -2.88567916280706
H           2.50808043285184    0.61362469057110   -2.13990143729044
O          -2.60054394818611    1.25797140348226    2.45200727487845
H          -2.50504350935055    2.13090225834617    2.83643398527934
H          -2.36923773721716    1.35978448588158    1.49849903619524
O           1.53705634825821   -1.90397591394023    0.20779014188278
H           1.35769524946264   -0.95218118502541    0.31991522380262
H           0.69405458212277   -2.31139798909335   -0.00959477903223
O           1.98881780459571   -0.91973077044009   -2.34165832507906
H           2.19993603966395   -1.44436864418103   -1.55169737988780
H           1.04455502387939   -0.69269769347404   -2.22909107769417
N          -0.75464538608615   -0.63014685685042    2.23520550880915
H          -1.49867449700100    0.02596378453529    2.57538438357226
H          -0.29199856103098   -1.14283437393801    2.97819845041718
H          -1.17189462843559   -1.26813383336593    1.51183146555877
H          -0.06560835204336   -0.04063803003135    1.65937320255212
