    26
        -50.46151003  Gyration_radius:  2.57576213616 Dipole_moment: 2.713
 S          -0.10099852865520   -2.48783215079515    0.21807867928121
O           0.53109755031881   -1.84493909778588    1.36053232259868
O           0.65413734654074   -2.28595507368208   -1.00279841180852
O          -1.50219420544746   -2.10387597451837    0.09156066961446
O          -0.13420037617566   -4.04613141708616    0.51089460915688
H          -1.06792731067264   -4.23165469844833    0.52491130870091
H          -1.68602196844251   -0.72083725561761   -0.74539543489208
O          -1.66756187659756    0.10992923861501   -1.28225401135032
H          -1.85121443632123   -0.16313276919462   -2.18230602174107
O          -0.80429990809220    2.40909295516655    0.13363787405920
H          -1.49105405059659    2.10769678069057   -0.46933567532221
H          -0.81673676241482    1.75469257453665    0.85704747338913
O          -1.05445952338636    0.24585442309236    1.81349877716220
H          -0.50854467915642   -0.56009538483435    1.70839109687789
H          -1.94936260011757   -0.04125324939155    1.62112621520913
O           1.89485462895773    0.44987007049646    1.61458448264183
H           1.64336060139721   -0.48824202060298    1.70262850211129
H           1.26899200100632    0.93554465362374    2.15981657795230
O           1.28906826674657    2.88170765909552   -1.60302257571312
H           1.66594614124848    3.75979005827528   -1.54928715776823
H           0.56530792022854    2.85305904277221   -0.94795835394489
N           1.04206881083833    0.29614548731379   -0.92243476401839
H           1.13378698379065   -0.73225942586291   -1.10827065347953
H           0.02048718250247    0.49396679144514   -0.97831967829236
H           1.40073018605909    0.49063967012275    0.05072058138030
H           1.52473858643211    0.91821913257767   -1.57604645180374
