    26
        -50.46984826  Gyration_radius:  2.48354637908 Dipole_moment: 3.537
 S          -0.23317055759678   -1.76180205351615   -1.02797819398964
O          -1.26586995195822   -1.11952108565201   -0.24941963876284
O           0.99595984481536   -1.96605492039988   -0.26020815194576
O           0.03217091889518   -1.12554823487162   -2.30395548558982
O          -0.77682587844300   -3.21469687789232   -1.36270134838425
H          -0.14860696677370   -3.51426577104743   -2.01106858467403
H           0.50760953559752    0.37570857781013   -2.17623275525778
O           0.88790418466389    1.29119646804685   -2.07407124323234
H           1.28915687763817    1.49615094036306   -2.92066917032167
O          -1.88953579804188    1.22614213946431    0.92852500420334
H          -1.68453498522945    1.91705676823939    0.26770424002834
H          -1.88783926770624    0.38842607265517    0.43000730325590
O          -0.92884404253133    2.95238666526499   -0.92533008515040
H          -0.32795542686172    2.34957803746974   -1.40522050212847
H          -0.41605470488461    3.72981707397978   -0.70042602864842
O          -0.24387184624125   -2.08877869319497    2.05048815643216
H           0.37701321619446   -2.21288026742054    1.30145920419585
H          -1.09502536741565   -2.00545561199868    1.60123305147384
O           2.02183505971633    0.42276407786486    0.27099037441469
H           1.74769629533307    0.90576357033585   -0.52647877827955
H           1.81546631134122   -0.51485100996398    0.06909100226151
N           0.25491471003917    0.51486539979456    2.23602661009913
H           1.03401513754081    0.60293019806769    1.52270585108047
H          -0.63829043380901    0.91731387750127    1.79812564284267
H           0.08197520875025   -0.52389820898852    2.35128278609457
H           0.49070793697016    0.95765286808962    3.11612070998336
