    26
        -50.46264187  Gyration_radius:  2.4062107321 Dipole_moment: 3.518
 S           0.29109561615808    0.11864388227416   -1.15266076576903
O           0.32582769481078    0.51264258363479   -2.65148297777920
O          -0.94355091053380    0.67015586205415   -0.57921520236429
O           0.31257416496680   -1.32896761015129   -1.08134793510174
O           1.45300493308014    0.70681347824257   -0.48421497522755
O           0.00070037813029    1.03375289398938    1.83656777594088
H           0.87357069832013    1.31925920596716    1.54248965256322
H          -0.51457323786728    0.96797059686628    0.99908798927566
O          -2.98178824951093   -0.80991232073718    0.26573047219383
H          -3.56949154841660   -0.98043586998160   -0.47176580862452
H          -2.29850592729639   -0.18767343229956   -0.06454161479056
O           0.46268541563787   -1.41451149378542    2.38681210748363
H           1.33590379048292   -1.47891825088850    1.84158697977643
H           0.19957257079350   -0.42567963343612    2.31411680919425
O           2.40787340654374   -1.39646642803254    0.74650424682902
H           2.20116976533865   -2.07663558708433    0.09736850491642
H           2.18896296977728   -0.55214651076635    0.28184781521267
O          -1.05352530893595   -2.53690815705471    0.78889308283913
H          -0.26307021992319   -1.96887116370482    1.77754135013403
H          -1.90051587538611   -2.03199662706098    0.74427819431595
H          -0.55900703874368   -2.24013424968052   -0.01392065310765
N           0.40470672644726    2.98805219383402   -1.83765916647240
H           1.07620296352931    2.62908785667150   -1.16616516758304
H           0.33775994468513    1.50641042017105   -2.60688972452395
H          -0.48677166198874    3.07118236376068   -1.36549038489090
H           0.69918893990003    3.90528601719098   -2.14747058444623
