    26
        -50.46804849  Gyration_radius:  2.45330558273 Dipole_moment: 6.136
 S          -1.47418180738924   -0.61101145026540   -0.75464410074096
O          -1.23914522825348   -0.29788272942266    0.66676895746308
O          -1.26784334781315   -1.99442541223135   -1.06069175161540
O          -0.62147768146449    0.27484546337559   -1.57048292375328
O          -2.94535451809796   -0.22873993544975   -1.06806151626921
H          -3.06473617465636    0.63705954517469   -0.61009367088503
H           0.93856092296902   -0.11711768946237   -1.66843601119352
O           1.91013874476955   -0.24829471512175   -1.51791972736582
H           2.34803418741678   -0.01278180404061   -2.33677425328098
O          -0.25807695683218    2.61180904187391   -0.46263148286792
H          -0.24257963506859    3.27497438166193   -1.15430256459188
H          -0.37531166003205    1.74447073862442   -0.92271122990636
O          -2.74607995758076    1.88733849830384    0.47880046259957
H          -1.97423107851679    2.40324172665086    0.18348782014175
H          -2.36520918391633    1.18554850245197    1.02747282469203
O           1.77180303166692   -1.68477287106672    2.36122873995216
H           1.61335013275694   -2.15602606623347    1.50397766064013
H           1.06706401562589   -1.97306196734186    2.94406432362695
O           1.16266511337928   -2.55947106782199   -0.06053109605271
H           0.23413408319602   -2.51010593498753   -0.36119655899303
H           1.65472502005790   -2.00108684552515   -0.67582533794961
N           1.19800037078008    0.50461369096566    1.02330609619337
H           1.67652559205968    0.37498617378249    0.11530676852599
H           0.16959682079347    0.23363730741406    0.87907018036370
H           1.56912372341196   -0.20786429240224    1.71053124854850
H           1.26050547065756    1.47011769101108    1.33028714290162
