    26
        -50.46471586  Gyration_radius:  2.51639626078 Dipole_moment: 2.415
 S          -1.91034637578455   -0.56865997477611   -1.02049997715015
O          -1.22000141696670    0.55091715570859   -1.66001761915705
O          -1.81772828867014   -0.50965714938682    0.41770214966117
O          -1.49951713170180   -1.84200352476313   -1.58360206106078
O          -3.44647577682767   -0.40431688645203   -1.38595161728722
H          -3.45799247548720   -0.65006668914734   -2.30561252687076
H          -0.15763869559815   -1.97357112926084   -0.75527703416133
O           0.66249034186331   -1.99030133573244   -0.19626486592045
H           0.54879299755718   -2.73604653388692    0.39656671920969
O           1.45508031546171    0.20971387057446   -1.81181053361085
H           0.49750313166924    0.39498555317913   -1.87467726008446
H           1.51007255132718   -0.73303239249161   -1.62577049991487
O          -0.36661645809378    2.27678513317716    0.08848074437954
H           0.28850934678212    2.75583308488214   -0.42543065508775
H          -0.83890849869483    1.69588847601757   -0.55445685477110
O          -1.04604491977309   -0.58111531716834    2.98281224972227
H          -1.43348782371459   -0.67333962805428    2.08986968636346
H          -1.65805982857588   -0.02661672364070    3.46919269717167
O           3.07549301824386    1.22300325753814    0.10474795466586
H           2.52279634151891    0.93862742072196   -0.65568718998205
H           3.97280627360119    1.27744857949113   -0.22349167029810
N           0.88403527869700    0.27198763081878    1.32878667167947
H           0.35375205522045    1.07751665703882    0.89098511300393
H           1.87184328659997    0.54184591525372    1.38040539510177
H           0.42471097665764    0.03469908482873    2.22576158166222
H           0.78493175469080   -0.56052452447357    0.70323942273481
