    26
        -50.46838502  Gyration_radius:  2.46196481235 Dipole_moment: 4.909
 S          -0.68260046833807   -1.85921083117965   -0.88674090790071
O          -0.76794259833497   -2.05893808001512    0.55054786919700
O           0.49344510783829   -2.42234823588583   -1.49348294073289
O          -0.92230060251052   -0.46229995613000   -1.24339321512241
O          -1.91748103161154   -2.64350051480533   -1.51717702120546
H          -1.54503584486908   -3.51020688737886   -1.63973852603738
H          -1.59335648543560    0.70778472262217   -0.35707707964634
O          -1.93356930523414    1.43538634729048    0.22287447847629
H          -2.73439766202522    1.75680457748414   -0.19298956033360
O           1.17984061237254    0.87831282375161   -2.11458187509935
H           0.37272937970860    0.37216315680657   -1.87251741727210
H           1.41617625899074    0.60170862856653   -3.00078577848418
O           0.67093691315861    2.56165361220652    0.08620879390828
H           0.98077576387730    2.17207147933736   -0.74305424037402
H          -0.27403541854295    2.35498954912901    0.13274807248380
O           1.64013049356264    0.88707579829407    1.93365951580784
H           1.43559539376619    1.65167721092582    1.34671179405362
H           1.98924976192296    0.20134755872621    1.32507523571007
O           2.11199112717031   -0.78455848298447   -0.09559293098485
H           1.62743302100992   -1.53882131754106   -0.46573234844258
H           2.08817196432159   -0.11262694137315   -0.79535835379843
N          -0.74602263493113   -0.03599587309043    2.19299891455810
H           0.27997462927583    0.35426313676091    2.19153360851647
H          -0.74548273304543   -0.90313691428497    1.57872084897333
H          -1.06880973873987   -0.25610773272746    3.12789195160097
H          -1.35541589335297    0.65251316549134    1.72925111214840
