    26
        -50.46480884  Gyration_radius:  2.46690140734 Dipole_moment: 4.541
 S          -0.71400374785906   -1.94573670348308   -0.96398699367516
O          -1.29401207824571   -2.54180632908152    0.20246983966016
O           0.74018369262447   -1.79158947978738   -0.85397535420847
O          -1.33626734035623   -0.66516992201626   -1.31041275988166
O          -0.96361547970565   -2.90564136431904   -2.19575850861554
H          -0.53550110709581   -2.47544369802617   -2.93154121692193
H          -1.77322104564882   -0.20538677463096    0.15990151915095
O          -1.90620834039265    0.00912083013907    1.12081099966891
H          -2.56327722896917   -0.62658997611972    1.41440581323978
O          -0.07605140266578    1.68387620753387   -1.82013789071459
H          -0.26189215249445    2.14388159111762   -0.98998814487005
H          -0.58838622648038    0.85727267196212   -1.77637981328016
O          -0.62086692208952    2.44790704301263    0.88019063074835
H          -1.17063721356203    1.66232467118335    1.03620399199782
H          -1.14399779321254    3.21116464994380    1.12862202273354
O           1.92043709816363    1.32602048453702    1.30109862151240
H           2.22095659952339    1.10372499892721    0.37532066012797
H           1.18712908133650    1.94935290284397    1.18828968298336
O           2.25029034558659    0.51246407595907   -1.16431113914295
H           1.89964355164156   -0.39172082561819   -1.15010640348402
H           1.53665310881340    1.04479655822260   -1.57745127827674
N           0.64378077099735   -0.89424022071245    1.61558106264788
H           1.24001824233539    0.02170763624165    1.61041915442778
H           0.79855781942248   -1.37611585119945    0.68970340749460
H           0.87482416282634   -1.51634270781032    2.38231135624589
H          -0.36453639451655   -0.63783046883733    1.62872075038043
