    26
        -50.46114186  Gyration_radius:  2.69232331981 Dipole_moment: 2.295
 S          -0.87045133063745   -2.45117347587821   -0.91750833535146
O          -2.00695118240216   -1.55429959989233   -1.11877090494545
O          -0.85247554415981   -3.09227093332917    0.36349641586171
O           0.38778945774832   -1.74210709675361   -1.19649492160854
O          -1.01549340491847   -3.56228413340569   -2.04174213046460
H          -1.49704999538744   -3.11715814088612   -2.73350812352524
H           0.60408339296134   -0.16023004084651   -1.53808360069436
O           0.81737176290459    0.79394101187781   -1.68252923477963
H           1.15770884265470    0.85551706223750   -2.57585459304784
O           2.33809056402796    1.05680723615188    0.63401374645715
H           1.93733169858855    1.00382123846604   -0.25068521977473
H           2.06547933330606    0.24496672985996    1.08125426598523
O          -0.91570927867174    2.33674023323753   -0.17831098880683
H          -0.31948698641149    2.73408310413543    0.49625029751336
H          -0.33365807994980    1.95785322348738   -0.85862875858276
O           0.89287676213642    3.03580591686559    1.65306606027322
H           1.51274234911779    2.31732597255310    1.37537394050512
H           1.40218822134815    3.84658536135422    1.64935068459510
O           0.84728501233898   -1.21232608463475    1.33162028318316
H           0.63189314994014   -2.04293504587865    1.76735680082448
H           0.83518127692445   -1.44957409380545    0.37522515885559
N          -1.53621364990002    0.04307090127385    0.89646451660927
H          -1.36703402803700    1.03358611260302    0.49968804332124
H          -1.85415231990210   -0.57648046124294    0.09483333013908
H          -0.63093470380920   -0.35253862091925    1.23818720594507
H          -2.23041131983236    0.05327361338759    1.63593606148517
