    26
        -50.46401173  Gyration_radius:  2.51141111746 Dipole_moment: 4.024
 S          -1.32936152302136   -1.26991600363457   -0.48205383334257
O          -1.32948268674728    0.21654654950383   -0.42120527668190
O          -1.78430818383702   -1.82281249876726    0.75886254495811
O           0.00695455164949   -1.74148266954626   -0.86013637900878
O          -2.30529624906647   -1.65463708093731   -1.62908522163559
H          -1.96832544124456   -1.17723063145596   -2.42403467896622
H           0.76747331653372   -1.69964536234568    0.53122198000998
O           1.16605993730371   -1.55996051852524    1.43334063614774
H           1.10146966992886   -2.41185395682248    1.86876698437537
O           2.37707262081745    0.88022435456696    0.45645901313178
H           1.96956116919201    0.88321743806253   -0.43076536437251
H           2.25835051664818   -0.01299860775157    0.80168382479513
O           0.84252367401186    0.55978800901403   -1.82372738405284
H           0.95855605936032   -0.40263451654073   -1.74346821559965
H           0.03110884895703    0.70195426496543   -1.28873603802013
O           1.06195611315066    2.48280160027931    2.09025675669122
H           0.85713493506992    3.28097830923139    1.60099777991991
H           1.69006920747664    1.96597831797326    1.52252951838309
O          -1.28043298635906   -0.06874062693185   -3.49723772463518
H          -1.84137691505875    0.70928893639654   -3.45847727126157
H          -0.41286073464989    0.20124085149904   -3.14005676308802
N          -0.57881110756202    0.40147654602619    2.05872359944211
H          -1.01430479335004    0.42295340931702    1.08706825365612
H           0.09227932553735   -0.40408004102264    2.01530229490450
H          -0.03818409245873    1.29315273279206    2.22140822409546
H          -1.29782524229523    0.22639119469469    2.75236272019379
