    26
        -50.46151548  Gyration_radius:  2.41392643469 Dipole_moment: 6.710
 S           0.19895145167809   -1.34060121498643    0.25079002387251
O           1.34118099799922   -2.24299010852241    0.35117663813555
O           0.30490191851271   -0.51867396947306   -0.96373936492636
O           0.11878677317020   -0.46107475139244    1.42467978535960
O          -1.06892965272917   -2.18231126042557    0.17414308829837
H          -1.89191687750439   -1.57460429750377   -0.02196018321552
H           1.52552924125152    0.36032850482985    1.64827185631641
O           2.44424773807237    0.72529128770749    1.68333047881229
H           2.80834819005283    0.43429238213228    2.52128495099702
O          -2.95525193838473   -0.59147856554697   -0.30150192219065
H          -2.72243593379306   -0.23758168261011   -1.19586541902559
H          -2.78148783009802    0.13463996913331    0.32890863555818
O          -1.92904211352475    1.16408592202327    1.50166340286182
H          -1.14126536422156    0.56990078216879    1.53933267017914
H          -2.26385685189098    1.22875207626158    2.39702103611061
O          -0.48941372160491    2.10953720864371   -0.76722643671621
H          -1.02683410247096    2.16690523952482    0.03089655292434
H          -0.10057571869378    1.21996303133475   -0.74959193012313
O          -1.82749556514973    0.39946286365325   -2.49305752212319
H          -1.04258577591933   -0.12961593751556   -2.28965515240650
H          -1.59111855200755    1.29058287270541   -2.18625619280477
N           2.87808944026296   -0.49207671590299   -0.60570937479111
H           2.96349995878733    0.12982122767476    0.24239471494506
H           2.06431773108415   -0.16062429608952   -1.15663066000138
H           3.73201967825090   -0.58629139811129   -1.14497630408779
H           2.45233688887508   -1.41563917970210   -0.21772338194556
