    26
        -50.46174499  Gyration_radius:  2.55835186383 Dipole_moment: 7.565
 S          -0.67216228992875   -1.44268762283815   -1.12043678823067
O          -1.26808288894211   -1.85623715365439    0.14387392969611
O           0.77620799976689   -1.51980179158278   -1.10913829438637
O          -1.12681395023490   -0.09822805797887   -1.49720506699579
O          -1.21260393565057   -2.42983760716467   -2.20505839126668
H          -0.77044970049210   -2.09473707538282   -3.00955483879921
H          -1.24177186293383    1.08998715032859   -0.51785545956532
O          -1.33626998715420    1.84149604388077    0.14382881747291
H          -2.01739951878768    2.41122775238513   -0.21769723492174
O           0.30991360298599   -0.86094241406686   -3.69051712796230
H           0.99012528849478   -1.07906837609054   -3.03760224871550
H          -0.20575481628300   -0.15817874889810   -3.27261171268523
O           1.33565833928094    2.53593758884064   -0.02808188680911
H           0.37913021367970    2.35864155095665   -0.00465979950209
H           1.53804098484625    3.08340057300625    0.73240638511817
O           1.25186723200833   -0.25612730472051    2.88060293961423
H           1.70620519906237   -0.11760519592764    1.98995159991043
H           1.53011094546069   -1.12714690272018    3.16828486638816
O           2.24237367783242    0.00555182760795    0.51925323177035
H           2.05274259655788    0.90338841967708    0.18970669347338
H           1.77424981956154   -0.60631892686259   -0.08461898993237
N          -1.22387898953945   -0.10612280590529    2.03207909709214
H          -1.34049798917643    0.78399164163665    1.51356209029713
H          -1.27785229581670   -0.88302894577868    1.28768604622551
H          -0.24571747210064   -0.15040734930071    2.46182850593780
H          -1.94737019255195   -0.22714624943978    2.73197361678357
