    26
        -50.46043046  Gyration_radius:  2.69274943804 Dipole_moment: 3.816
 S          -2.40717236271409   -1.07998427774596   -0.59251384034341
O          -2.56757209856982    0.31824898266504   -0.90918531014915
O          -2.35686217186877   -1.36528696890414    0.83919934167044
O          -1.25912748714316   -1.67446454966872   -1.27261929191518
O          -3.70026526078708   -1.83353827908480   -1.12705501076140
H          -3.72167404871575   -2.61531986770937   -0.58313276584824
H          -0.12763654059064   -0.88180512306474   -1.99313211190851
O           0.63571263209750   -0.36753709720929   -2.38905856866601
H           0.64923612928436   -0.59538205682096   -3.31932906299897
O          -0.29919350059148    1.61338792044462   -0.74380850713301
H           0.13408747777157    1.16213903599789   -1.48735080860544
H          -1.24606702043938    1.36407488443584   -0.84324925132648
O           2.16798484822773    1.87256886102193    0.72654232522251
H           1.40986113069311    2.15332171428171    0.19813255174431
H           2.41383444633261    0.99902607964362    0.38706313696105
O           1.11324512825303    1.26671660380285    3.12771382634470
H           1.64841750665981    1.58976875225540    2.36800639462648
H           0.74858562064638    2.04217883715124    3.55544700206203
O           2.25408051454928   -0.78727746354484   -0.27999886178553
H           1.74979395506775   -0.65541847616694   -1.11083140828934
H           2.93586805341587   -1.43244998396874   -0.46842920477340
N          -0.03749324919735   -0.23462995269619    1.20449416864624
H           0.73297850285083   -0.82389052030078    0.86766714695550
H          -0.13983243389908    0.55180262384367    0.51036274895176
H          -0.95424178922267   -0.76220964667778    1.21061187212533
H           0.22345202788373    0.17595994801577    2.12445347919541
