    26
        -50.45627814  Gyration_radius:  2.76781893875 Dipole_moment: 7.613
 S          -0.05969971828975   -0.53510715446707    0.73540526349366
O          -1.23686327671668   -0.24071548753122   -0.27468814782870
O           1.17429442083887   -0.22142511856979   -0.00079865826139
O          -0.27783315771547    0.41311140134591    1.81883079053934
O          -0.14113951910109   -1.92269439939125    1.12149659002808
O          -1.48101100815520    2.30402411162295   -1.21634051179391
H          -1.47658833710022    1.35659870012626   -0.97703851520594
H          -2.39823141897233    2.58044942940296   -1.20767379837918
O          -1.93825763938889   -3.63900242194770    0.18047526773166
H          -1.25491376248434   -3.08967883203926    0.62057199928300
H          -2.73976358246246   -3.52120153547629    0.69184675400097
O           2.68263181857064    3.81667061705679    1.58329987041599
H           2.63151656772864    3.68788266317272    2.53332604068234
H           3.58322171791382    3.62130012703324    1.31496359635546
O           1.32394594339202   -2.56313668275702   -1.25581628968316
H           1.42265766567371   -1.67715292900617   -0.85467630307212
H           1.17157761305842   -3.14991256982915   -0.50932800419914
O          -1.21568317708210   -2.13543982336907   -1.93607929228939
H          -1.25360952658202   -0.98485478178404   -0.99543920785951
H          -0.25302888850614   -2.34937134894778   -1.92559306491243
H          -1.62720773800574   -2.82518540330751   -1.37679744441403
N           0.68688451207870    2.27239594484438    0.37742567355168
H          -0.02992879896709    2.63820067134309   -0.27122229092470
H           0.19609155222763    1.74876174921584    1.16904022546979
H           1.15416357683551    1.43770515391224   -0.05654454987875
H           1.35677417120847    2.97777790935369    0.71135401715089
