    26
        -50.46757008  Gyration_radius:  2.39724263506 Dipole_moment: 3.767
 S           0.64176435344474    1.79609431859031    0.67210582243215
O           2.05594443990874    1.86204820494015    0.39664087667724
O           0.27831272247223    0.78859092779326    1.66119625908362
O          -0.16633332896939    1.63958897280200   -0.53082831805555
O           0.26446761201094    3.19869836703721    1.30124200910518
H           1.08433709722628    3.65095602523893    1.14055328936017
H           0.17381591785382    0.50066083825244   -1.63797759571808
O           0.22900646512337   -0.28660293541627   -2.23568462897182
H          -0.43792752109232   -0.12927017831141   -2.90892742817799
O          -2.46882193294169    0.27989231351079   -1.21926357317739
H          -2.98822115677167    0.22187688592091   -0.41370115903171
H          -1.76645973687356    0.91623972953764   -1.01127708207409
O           1.38997017095249   -1.61130687565100    1.21929419761591
H           1.09203800593849   -0.75998756925524    1.59626182854178
H           2.06482694775324   -1.34855797687856    0.54843645571607
O           2.71350210623795   -0.46009226551047   -0.75591661580217
H           2.62897903662844    0.43459393159799   -0.36997587344976
H           2.14083921457763   -0.47062477619874   -1.53039804040140
O          -2.06473782585143   -0.35394731669670    1.49739609049023
H          -2.22996619238911   -0.67293751802405    2.38612345696999
H          -1.23743798797178    0.18452960642171    1.56019444005977
N          -0.69720026046956   -1.90377434958352   -0.28511821754453
H          -1.42093425598374   -1.37265400743019    0.24559786604501
H          -0.43527862143920   -1.34391643037869   -1.13671725910632
H           0.18330119964921   -1.93266707353263    0.35038478176977
H          -1.02778646902488   -2.82743084877691   -0.53964156235517
