    26
        -50.46980451  Gyration_radius:  2.40733987242 Dipole_moment: 3.192
 S           0.82128281405029    1.10976864782093   -0.36333164771836
O           1.78549388793623    0.28615535646243    0.35760086018836
O          -0.23564753307402    1.58468601232690    0.51575444962917
O           0.24592391151798    0.39251569006894   -1.49863677378394
O           1.60789893129232    2.33816169228308   -0.90777909341635
H           0.92223454264977    2.82039416410038   -1.41245660230569
H          -0.18429140852293   -1.19084501095991   -1.15845027311089
O          -0.29987300002658   -2.08973641362099   -0.77586250654564
H           0.57108056045292   -2.49711789356046   -0.92425623868444
O          -2.43993933354158    0.05608433344641   -0.03301307422678
H          -2.23121414806794   -0.68407878044043   -0.60748324897715
H          -1.65683401670397    0.63284076169032   -0.02836073502328
O          -1.60011093299364    0.35325884698052    2.54425255107004
H          -2.31679982679003    0.17784664680386    1.91126439616090
H          -1.10800809027762    1.08094411787366    2.12782998346549
O          -0.72125715788053    2.82944056630827   -2.04421946449237
H          -0.61720412479089    1.87021120487419   -2.15802621017089
H          -1.32265116835425    2.94643274699282   -1.30322400087497
O           2.41479429307614   -2.10263943079742   -0.74855976004678
H           2.31026079313668   -1.20676105418434   -0.37327357601652
H           3.00051075597061   -2.00708387538323   -1.50063803458440
N           0.20973680353809   -1.36231056666212    1.70515968487188
H          -0.55536494030698   -0.77750234744923    2.16672435045074
H           0.59255096201369   -2.06340766876747    2.33078730322962
H          -0.14657815325993   -1.79866442943372    0.79981960200864
H           0.95400559888131   -0.69859329673247    1.37837805892276
