    26
        -50.45996598  Gyration_radius:  2.81951945652 Dipole_moment: 3.700
 S          -1.32594917719914   -2.57466837636171   -0.45492292733899
O          -2.16259605004665   -1.70988056889274    0.37679262064716
O          -0.01597900775131   -2.79706953928259    0.11469803481994
O          -1.28734955902873   -2.10420547305819   -1.83183313661775
O          -2.04978146395905   -3.98654875656216   -0.48565457740077
H          -2.88093550179848   -3.77436742403934   -0.89888032531374
H          -0.47727399965671   -0.76420243528600   -2.01000071415865
O          -0.06314239050888    0.14380027736602   -2.04160342302612
H          -0.35605987126059    0.53596770987769   -2.86542134190814
O          -0.84748705628363    2.93044823064007    1.53489104085857
H          -1.39915980870790    3.63091687019257    1.18493597192192
H           0.04860889118132    3.06541145329781    1.15078047468064
O           1.52859637850478    3.06197156864862    0.31767756334778
H           1.81998734805472    2.20708536582873   -0.08295576300470
H           2.30595301287822    3.42828966697902    0.74038801173787
O           1.49473734518981   -1.08510270617895    1.31984549634126
H           1.85862830132917   -1.50962428971765    2.09761329895488
H           0.98678035366668   -1.79094155413824    0.83822079192646
O           2.28698835394423    0.69581998302508   -0.65974855000132
H           2.23073424208843    0.01712441083485    0.03028850569233
H           1.63509688873719    0.43896163863261   -1.32906462218260
N          -0.67854068042598    0.40705673226587    0.60379450978564
H          -0.44716284975262    0.55364247713239   -0.39670382686267
H          -1.40929341143189   -0.36070063643730    0.62878897147561
H           0.16508040038502    0.03403936236256    1.07310103691654
H          -0.96048070815527    1.30677602285574    1.04497286870408
