    26
        -50.46261752  Gyration_radius:  2.581689446 Dipole_moment: 3.334
 S          -1.24745589718670   -1.51626710634307   -1.08988912870380
O          -2.25599649746671   -0.49620269335067   -0.93625313611407
O          -0.58685452040064   -1.82711484838438    0.17506050915921
O          -0.27264945453979   -1.23445489213215   -2.13445437543494
O          -2.00538140191847   -2.83978171477539   -1.53245036948476
H          -1.32359701084138   -3.50462299364525   -1.56961959099636
H           1.06141375422635   -0.71490616615907   -1.38392405176198
O           1.86586028719209   -0.29080498809088   -0.99195183865599
H           2.59592114709873   -0.53073614354247   -1.56484141705316
O           0.41898713036779    1.95959750733765   -0.42598751939975
H          -0.20592504156569    1.98460201711439   -1.18869625909481
H           1.08013532256465    1.29511268061328   -0.68681949377397
O          -1.20996119515708    1.41084649298092   -2.45317099427145
H          -0.68622076477012    0.79626546782492   -2.97730718349523
H          -1.79577855537253    0.82271755724962   -1.93719152927208
O           0.51735368875731    0.32453471998791    3.55380996679075
H           0.55805489968616   -0.55585628737477    3.93078965797083
H           1.30631726823040    0.40896612967187    2.97286868825941
O           2.35701305132570    0.56310023123709    1.61523694241810
H           2.18308367007739    0.03399856151845    0.81956483780510
H           2.31361171824645    1.47962643834597    1.33056881023020
N          -0.94769848361690    0.49931991589866    1.31455819455725
H          -0.79943327891962   -0.47499019167819    0.92225708382171
H          -0.55809757222155    0.53144638702571    2.28537003911413
H          -0.42045464457310    1.17446971265173    0.67980446836623
H          -1.94224763921385    0.70113421601142    1.27266765901634
