    26
        -50.46358838  Gyration_radius:  2.57090415698 Dipole_moment: 2.059
 S           0.56057254369190   -1.25358807887751    1.75506782068061
O           1.13962152855127   -2.13342782923756    0.76850625597874
O          -0.89172962850887   -1.21387352539614    1.71852835997096
O           1.12412910270497    0.09545591640525    1.68203775751788
O           0.94775316705194   -1.83194357130540    3.17789349459075
H           0.32701811058654   -1.41368514577515    3.76831494690881
H           1.57087412321592    0.17849935659710    0.10810235117498
O           1.61204225023407    0.06457398105092   -0.87157342937962
H           2.01068986402156   -0.80256392567494   -0.99095968241499
O          -0.54270668786583    2.18921016729307    1.46640756760721
H           0.07062307435288    2.92618766980389    1.48899593398402
H           0.00183944381644    1.38888046788923    1.60440426722043
O          -0.42344130755929   -2.96080859613820   -1.26524080467930
H           0.16214985067438   -2.72873517928839   -0.51674310070812
H          -0.51246079023321   -3.91380708212375   -1.23774812835034
O          -1.84859016670129    2.10235507366670   -0.90921185618294
H          -1.58329650511960    2.24573891935609    0.02200831047341
H          -1.08907324293847    2.42151217481227   -1.42563711888317
O           0.65364400206860    2.42673359277234   -2.02113687331489
H           1.11510173113468    1.67885196027921   -1.61184096707381
H           1.01299579660184    2.52215425889504   -2.90377010504251
N          -1.10728122447639   -0.39877183976787   -0.78056556190836
H          -1.42926343743068   -1.17527265899481   -1.36020730158072
H          -1.60043831717517    0.53671411391137   -0.92772788108580
H          -1.18797649478910   -0.69464346682899    0.22672858505918
H          -0.09279679590893   -0.25574676331883   -0.96463284056435
