    26
        -50.46825959  Gyration_radius:  2.51187752696 Dipole_moment: 5.415
 S          -0.41114677801599   -1.10005827431808   -0.11577218310732
O          -1.43626779298095   -0.03851156422609   -0.23760075545575
O           0.03127457862030   -1.21973949209266    1.25246051848010
O           0.69362961939971   -0.82208019186914   -1.03393064335721
O          -1.07288332456958   -2.43490787117093   -0.51602876994086
H          -1.41142539957778   -2.35957646566695   -1.44976372813817
H           1.51903497202095    0.46887259491835   -0.61840193934635
O           1.92825994428688    1.33106998673781   -0.32902836515537
H           2.33904773008737    1.70640830797161   -1.10951176551367
O          -2.04648704946371   -2.05860787296970   -2.90500044429346
H          -1.68232553711590   -1.15761029597845   -3.08767674159212
H          -2.99904024756051   -1.96334851309646   -2.84142286666978
O          -0.94602149092597    0.34550073147583   -2.80681022619366
H          -1.33526231954246    0.42591440493127   -1.91492349732545
H          -0.06687921391312   -0.01364020827628   -2.61555625796398
O           0.28804267224502    0.54150957106964    3.36163955246610
H           1.23699566550643    0.37306759564556    3.16573330069948
H          -0.13589529932540   -0.28070681909153    3.07701341675171
O           2.45401525675533   -0.22948540312890    2.01015384516618
H           1.75600988826477   -0.82169596612481    1.67826783383185
H           2.65088744645731    0.36298987420745    1.27560282100649
N          -0.27894160581709    1.82313556425794    1.15517572145679
H           0.61955173030221    1.88427673544942    0.63446357642890
H          -0.87363049047923    1.11432029804686    0.62341363545827
H          -0.08145358397778    1.39800835147322    2.12730651214916
H          -0.73908937070503    2.72489491193274    1.22019743030518
