    26
        -50.47444108  Gyration_radius:  2.41404938699 Dipole_moment: 1.605
 S          -1.42903526440700   -0.03400820112942   -1.35508019008329
O          -0.82489099933916    1.27337088894803   -1.59516068076835
O          -1.97031991351525   -0.16824391351405   -0.02417861337777
O          -0.52566811524669   -1.11510483050780   -1.72165946029001
O          -2.65918209380248   -0.12418088131967   -2.34661743925393
H          -2.25583060292379    0.09608590388467   -3.17917112395388
H           0.31231638163201   -1.86536032083081   -0.56254609794715
O           0.86576413892418   -2.29683783243549    0.13779412042033
H           1.02070458721501   -3.19359635294164   -0.16216946807968
O           1.67294122125560    0.53035721754956   -2.06817892932281
H           0.83588307282097    1.01456109154033   -1.93567304277731
H           1.37942064330952   -0.34994451838533   -2.32699993556449
O          -1.21384652442761    2.33816033887814    0.76299229574970
H          -1.01212617799197    2.13512632899251   -0.17622379351266
H          -1.96371268157735    1.76115529585725    0.94885339352694
O           2.44083842810692   -0.03540984851395    0.41932267105798
H           2.31068007735310    0.29628713896986   -0.49971503320534
H           2.09344266802521   -0.94274380557625    0.40034561482277
O          -0.75527558770153   -1.25982626268425    2.08399274947171
H          -0.15186117219971   -1.84293675417746    1.59227756066837
H          -1.38040448351800   -0.94241199507313    1.40153286979785
N           0.65447576297490    0.96525233385274    2.06186640379333
H           0.09762912431731    0.07616058033445    2.24817915117566
H          -0.00460260412956    1.63174282680717    1.57003629956864
H           1.01323322304757    1.37079913045215    2.91862653758671
H           1.44942688176276    0.68154643103682    1.40755412049258
