    26
        -50.46891522  Gyration_radius:  2.43216692055 Dipole_moment: 1.390
 S          -0.59564697353662   -1.50878784898019   -0.87896759164913
O          -1.56300019455107   -0.93107347779841    0.04534935699156
O           0.62382380760419   -1.91606343206542   -0.20987123048411
O          -0.36506273697310   -0.64196383004000   -2.01941997682743
O          -1.25058720555392   -2.83547178787399   -1.43538563884671
H          -2.07681021213807   -2.53055008899264   -1.79542938558389
H          -0.66712121931151    0.94230357515524   -1.71041513263618
O          -0.77701933999484    1.90420474539125   -1.51960817763387
H          -0.92984179049008    2.33040268765944   -2.36416188214919
O          -2.39189684902680    1.66877803131422    0.82260205838878
H          -1.92544559002959    2.03529269653884    0.06027017296009
H          -2.53410374388617    0.74373412428561    0.59330959716350
O           1.32582229718772    1.88174218436376    0.21699856604529
H           0.62286581566491    2.14656080170391   -0.40208546244804
H           1.85890537231914    1.21724953051386   -0.27534393423618
O           1.48308871553293   -1.72684823670557    2.32088037261590
H           2.43861216379010   -1.67527633536651    2.25500884135484
H           1.16861237895782   -1.98890979625410    1.43230884506580
O           2.30803458273372   -0.13751684373496   -1.24081984502976
H           1.81099033456564   -0.87865150309185   -0.84469255607020
H           1.90451149060496   -0.02339765306555   -2.10556708539233
N          -0.09383705172186    0.38958845276766    1.83933468628033
H           0.51042884053674    1.05807419203210    1.25505481395997
H          -0.71619251049798   -0.13348931760537    1.17377599212902
H           0.51406032909680   -0.31132496955659    2.31174215277149
H          -0.68319071088463    0.92139408940496    2.47513244326335
