    26
        -50.46908714  Gyration_radius:  2.36586132046 Dipole_moment: 4.965
 S          -0.67293540023776    1.24679239276312    0.49974670300056
O          -0.87094355709137    1.77758417834645    1.84075840336071
O          -0.89882657108679   -0.20614130616360    0.50239680472860
O          -1.69774149765243    1.90290379055031   -0.43005237449638
O           0.67456543032685    1.53215525001285   -0.00098390324582
O          -2.01523756357669   -1.69836896657820   -1.42745079852503
H          -1.77575100340862   -1.19779040324051   -0.62429580058252
H          -1.34270909177455   -2.37727808742892   -1.52374311652524
O           2.19764761201633   -0.09092364289313    1.44694980358082
H           1.83073011848401    0.66976003297512    0.94675032740757
H           2.05458003913949   -0.85301971677821    0.83735166294482
O           1.12219343908924   -1.71660849751506   -0.36537527851544
H           0.32339932748578   -1.24232635692116   -0.05557007182313
H           1.35214303476859   -1.28325493282017   -1.19869362057789
O           1.24419036552135    0.36775840002716   -2.25097000581408
H           1.07672569873450    0.85772437007189   -1.40512282620208
H           1.87489251430742    0.89400315381041   -2.74447016341508
O          -1.44163562929748    0.64319189647094   -2.62773144182011
H          -1.81352129959224   -0.23190352629952   -2.38862471575336
H          -1.64316100957095    1.45639461242378   -1.34704199871959
H          -0.47699349036029    0.50947776799991   -2.69660172912270
N           0.17747663555737   -0.21279577377645    3.04607185132405
H           0.31584717503127   -0.18896163205030    4.05138950427320
H          -0.39092695928964   -1.00704236598580    2.76054057993261
H          -0.32133048400605    0.67842136380333    2.67125991148478
H           1.11732216622595   -0.22975201063368    2.48351229299478
