    26
        -50.47096520  Gyration_radius:  2.40574423592 Dipole_moment: 5.279
 S           0.13409961310411   -1.23562333407992   -0.64500042124566
O          -0.21726080892715   -2.22551772877455    0.35741091960739
O           1.14452245362876   -0.30373205485376   -0.13706316763885
O          -1.04944409651289   -0.50435107697853   -1.10652065301377
O           0.74795736121653   -1.97455429662885   -1.85612234547603
H           1.09660528721073   -1.24077631358289   -2.43058384663066
H          -2.11160477171178   -0.59930858950404    0.14274621987690
O          -2.46876606907482   -0.78540862826110    1.04478283956653
H          -2.17746695561845   -1.69216212785731    1.19846450359409
O           1.45750205179938    0.05831831861979   -3.31990561344837
H           0.90576068583151    0.78815772291283   -2.94129389715307
H           1.13664689222599   -0.07579476551278   -4.21446074157816
O          -0.27062107225135    1.74277849127718   -2.22721018244184
H          -0.71975203571180    0.94512323924356   -1.87301362025112
H          -0.01901133523697    2.24310961393487   -1.44271940494522
O           0.54051478284192    2.07811674263924    0.53954966061968
H           0.78423889777788    1.16732224111261    0.19452710043405
H           1.37385053976519    2.52484192299356    0.69868878822470
O           1.06190953367507   -1.26957404579665    2.40694160881919
H           1.77860647868880   -0.89258701266356    1.88413401044741
H           0.57671355660669   -1.81126126737435    1.73499051283280
N          -0.74913794487735    0.63702529820957    2.42471939315747
H          -0.35539900025666    1.36208020510806    1.78270626025499
H          -1.54794448315899    0.13245193487637    1.91670891499636
H           0.00858763852517   -0.10707067321512    2.56539370612548
H          -1.06110718956116    1.03839618414833    3.30212945526782
