    26
        -50.47203479  Gyration_radius:  2.42369390075 Dipole_moment: 1.984
 S          -0.87442893295443   -0.27032008269399    0.78012867007024
O          -1.87469167929291   -0.10403358329807   -0.26403959149385
O          -0.66054068123730    0.95542006801164    1.53822065337689
O           0.37042944476052   -0.79177496890042    0.23756924680317
O          -1.43894634923380   -1.35186030335803    1.76470530828769
H          -0.79187877588074   -1.34674701701048    2.49315886517059
H           0.95590833131100   -1.13905108995558   -1.46369729871456
O           0.78852404608594   -1.08535914374730   -2.42088813316920
H          -0.02273318162415   -1.61763657191651   -2.53923533331764
O          -1.65951468930660   -2.15632560544272   -1.98401664534147
H          -1.85476666816520   -1.43935601725570   -1.34918826339811
H          -1.75601051448145   -2.97550003982437   -1.49626601999617
O           0.86707424647284    2.45686539780866   -0.06795979540439
H           1.69526905157084    1.98543045293364    0.15490660348986
H           0.23621383218982    2.12707279860875    0.60096444805761
O           0.43148568844862   -0.43299028660470    3.45279535411294
H           0.15969609140524   -0.15476847624222    4.33026908483785
H           0.15268254995771    0.27625200746546    2.83597217583027
O           2.55955602326045    0.58784271386162    0.88892546965883
H           2.67838352540409    0.47977658150386    1.83442364385046
H           1.83336144916996   -0.01992113489157    0.64597873594288
N          -0.36425235339372    1.22617693315863   -2.02435695078218
H          -0.71895162395149    1.77553177320027   -2.79983684368993
H          -1.13685543874827    0.82651450153677   -1.44659205107629
H           0.20006071380332    0.37383187705831   -2.35234245290247
H           0.22492589443072    1.81492920599419   -1.34959887019468
