    26
        -50.47275853  Gyration_radius:  2.48758310509 Dipole_moment: 3.527
 S          -0.95969624501640   -0.80320580456843   -1.58349072394201
O           0.44275692808532   -0.51508917019544   -1.81353511390457
O          -1.57006343130010    0.15571650794497   -0.67350012227102
O          -1.20376398342019   -2.17964345082131   -1.18920899580910
O          -1.70124229557622   -0.63809024652535   -2.97724869065421
H          -2.05973386790463   -1.50747146019098   -3.11984495425499
H          -0.54802077415516   -2.51946374797921    0.22925198377072
O          -0.11694287877094   -2.65646312983021    1.11333377290077
H          -0.22723846030558   -3.58637627802955    1.31818087166127
O          -0.19534212019248    2.09652452422718   -1.82826578636637
H          -0.90726701755491    1.58000689020755   -1.40763246464635
H           0.38639740347465    1.40293664592250   -2.16793384864415
O           0.86132637406225    3.17185947463191    0.31966806721098
H           0.53806725208298    2.82320570239819   -0.55510798414633
H           0.20107619490087    3.80719068702235    0.60078130931107
O          -1.19082829485947   -0.24754545912017    1.91591601011830
H          -1.49529404708426   -0.04584652998966    1.00477727249325
H          -0.91808313536617   -1.17945513481506    1.87525919958752
O           1.97856169103750   -1.07499604253497    0.26286146457562
H           1.55019771720195   -0.87637751556060   -0.59808538756938
H           1.43586635174405   -1.78555071472361    0.64423940931228
N           1.15313185940120    0.93170535385767    1.74451832591106
H           1.62544180503013    0.18951515741594    1.13865133884160
H           1.07702687305639    1.83439643545996    1.20679836063404
H           0.17518505293044    0.54916809141367    1.93363522152832
H           1.66848105852450    1.07334923438381    2.60598147439250
