    26
        -50.45793235  Gyration_radius:  2.4612168167 Dipole_moment: 5.067
 S           0.02962250003810   -0.12989318268466   -1.00552502372992
O           0.50316756648592    0.78757564483395    0.05856114313987
O           1.34376982120582   -0.71022431635908   -1.64072896964286
O          -0.65293498127474   -1.27108549582097   -0.42927517296576
O          -0.71569029420749    0.58197976310493   -2.01074166073221
O          -1.80591072823482    1.28894198344178    1.40934754104876
H          -0.97788602516446    1.34310617431281    0.90363476348610
H          -2.46283165040824    0.94231301513937    0.76792854443983
O          -3.04245632303133    0.10688165335394   -0.66414801779260
H          -2.72222672297297   -0.78087226953344   -0.46832101722937
H          -2.42177035122005    0.43504221400673   -1.33413454703712
O          -0.98391431845857   -0.40474246043835    3.18268445630134
H          -0.99966059074774    0.05480983106586    4.02445104688151
H          -1.42271948927945    0.21229091469783    2.51857157398226
O           1.30763015165673   -2.61303585736769    0.59721821306631
H           0.46398757782564   -2.30465509341545    0.18299090439185
H           1.96403329310710   -2.53965312425359   -0.10111474142186
O           1.24921307628257   -0.52044506650443    2.02858171788507
H           0.35737329389098   -0.54170099225743    2.58247197139719
H           1.35572295715701   -1.44642043476964    1.58834338176481
H           1.00274149757390    0.10211550097814    1.20839326511572
N           1.81066333888000    1.58965374352326   -2.75016396580497
H           2.15956160591099    2.27337226068370   -2.09106371835829
H           0.79409120693231    1.63816535456829   -2.74382746442911
H           2.14496560679894    1.83256529233270   -3.67387372201660
H           1.72145799125434    0.07391494735315   -2.14026049173786
