    26
        -50.47392002  Gyration_radius:  2.44037522285 Dipole_moment: 2.148
 S          -1.79347086013643   -0.39890986852658    0.59375318814073
O          -1.12905117541555    0.80999580337098    1.05759699786577
O          -0.84938999262857   -1.50327587290962    0.49478859912379
O          -2.57737760238410   -0.21754244673246   -0.60616910378798
O          -2.82862614357898   -0.78672494017428    1.72668937172160
H          -3.52562529361990   -1.15536612410152    1.19653217154672
H          -1.70401755667197    0.17521010804108   -1.93427995496682
O          -1.10712229787313    0.43788226083999   -2.67434761780925
H          -1.65973756054669    0.50904949594328   -3.45402915705519
O           0.94315595770232   -1.00726105269516   -1.46252789146817
H           0.39828084483063   -0.58705446943416   -2.14328271858683
H           0.30753979181326   -1.27200051249316   -0.77264390473109
O          -0.04628592651358    2.34164830222742   -0.95505658754372
H          -0.53274939796936    1.96768568283866   -0.20233085220465
H          -0.37544593896234    1.85906636338779   -1.72982794631221
O           1.37848272779365   -2.17522708901850    1.76097788461919
H           1.91703801233122   -2.52728696841289    1.04799528144718
H           0.47616380180111   -2.09257651025388    1.38655704739200
O           2.27509753553566    1.11547048348869   -0.52484607649750
H           1.56618011703609    1.75946458428471   -0.76083400918075
H           1.98969011962008    0.28445452572780   -0.96822309686899
N           1.38904806690577    0.50057148193685    1.81771785135507
H           1.53005208819285   -0.53060200817442    1.94588304176424
H           1.70836588271323    1.03084804778690    2.61999279255138
H           1.88587615503901    0.80695606167554    0.89455160427409
H           0.36392866499641    0.65552467137462    1.64536309520811
