    26
        -50.45488110  Gyration_radius:  2.47413033427 Dipole_moment: 0.414
 S          -1.27879364230037   -0.21031070425997    0.49709868845897
O          -0.69966382579755   -1.38359100354887   -0.12451120860664
O          -2.67962877365424    0.02721934049119   -0.04943919713469
O          -1.52945550938201   -0.47199684219090    1.96972608188529
O          -0.46780012658233    0.97173027920454    0.33476594529560
O           1.77210030416042   -1.64582753670672    0.78864409285913
H           0.89708441239589   -1.57932852863662    0.35136563676539
H           1.98830769204303   -2.58003257039940    0.81707630334370
O          -0.24929218449840   -0.83038566347740   -2.74622904594598
H           0.55349829057204   -0.28532148058316   -2.56011824285830
H          -0.40314719593543   -1.29517602049619   -1.90827063387312
O           0.94939554451987    2.06015289920171    2.32539711124112
H           0.39401920419774    2.70879315538331    2.76119361832667
H           0.47571476923657    1.79272922179951    1.51337412470957
O          -2.33943893930650    0.64487326499154   -2.46056222210139
H          -1.49657528686585    0.12912202761129   -2.67766228208595
H          -3.03387905130255    0.26719366110920   -3.00583587626442
H          -2.58493973403503    0.33615505589848   -1.03290987088208
O           0.73846243850794   -0.50666780329581    2.98164312738509
H           0.96851781539316    0.44982003957762    2.92237866567272
H          -0.59065837156484   -0.52563522880112    2.47906688552409
H           1.27066357970651   -0.94706340247993    2.28040237198896
N           1.71994243059936    0.58978243253500   -1.58304862588641
H           1.02305040128062    0.94503286920704   -0.93259664044356
H           2.28497140494544    1.37161277006306   -1.88952980962513
H           2.31754435366157   -0.03288023218385   -1.05141900774794
