    26
        -50.45803389  Gyration_radius:  2.54176878385 Dipole_moment: 6.627
 S          -1.54917940782452   -0.86383474058457    0.90104551064614
O          -1.42946030921474   -0.96824384513966   -0.53260362739464
O          -1.82742516113145    0.50450642172339    1.33845963340978
O          -0.40291553689104   -1.41363200571422    1.60974399049496
O          -2.79603773245156   -1.72846117170872    1.33061839282787
H          -2.73903796899463   -1.67007789346649    2.27804339616231
H           0.93044386309056   -0.46591859262747    1.39430936781302
O           1.72171277246784    0.06320424361035    1.13405923585428
H           2.46417442249266   -0.51795741196074    1.33884169860699
O          -0.56808426119936    0.33075911278182   -2.77629533748628
H           0.24836700084624   -0.18938954476384   -2.71571776313047
H          -1.14846850655628   -0.08351802786255   -2.11631183998510
O          -0.19587050027705    2.73487666547905   -1.84947959559611
H          -0.28424199625653    1.83396626870281   -2.27554510520319
H          -0.96871992223378    3.22774032598160   -2.12934514010788
O           2.08073882380454   -2.73811001662528    1.04052035295774
H           1.19591551047983   -2.59480323255901    1.39907751723378
H           1.97958960816950   -2.67924407475883    0.08219063548798
O           1.16363470982180   -1.28510159741099   -1.30213382964654
H           0.24238453967891   -1.38936153831431   -1.00720229426330
H           1.56609083038153   -0.68309018741886   -0.66029276424422
N           0.07230062040998    2.13682552103874    0.70776087909654
H          -0.01920563529014    2.42468171086443   -0.31194707095057
H           0.11150095011870    2.95067311359576    1.31243152263272
H          -0.76337330865777    1.51332342161013    0.97196426612799
H           0.91516658522441    1.55018705554336    0.83780795867104
