    26
        -50.46701404  Gyration_radius:  2.41404452745 Dipole_moment: 3.680
 S          -0.26926862868974   -1.84705834688449   -0.70478578422159
O           0.05848349885612   -1.96981569234261    0.69764381105483
O           0.84267328403814   -1.97566572499289   -1.61289556100707
O          -1.02974837402776   -0.60884588370266   -0.93928390988851
O          -1.25885083032935   -3.03052738625906   -1.06488448418838
H          -0.85350711455057   -3.34622247961789   -1.86459650525375
H          -0.06895281323514    0.75542907609821   -1.22474451481643
O           0.31960144625518    1.65862296802035   -1.18745099114766
H          -0.42335438971594    2.23330581784023   -1.41343471031885
O          -2.46148998862763    1.82614621130429   -0.88588898623792
H          -2.22230820180893    0.92177391046652   -1.12720019230132
H          -2.94050305126603    1.75043856021103   -0.05806235788508
O           2.63698584692199   -0.08468992012826   -1.01204866382984
H           2.18084914926681    0.70178610770794   -1.32848461447948
H           2.10526444998181   -0.84207766533277   -1.32748744533515
O          -1.75318778844537   -0.07906570479142    1.53624338975774
H          -1.48750058938464   -0.87230437042180    2.01142705318464
H          -1.58789234752244   -0.31516329065014    0.59515264795445
O           2.10154992294818   -0.49237397726261    1.55425135950806
H           1.44290057672999   -1.19440341761138    1.37284733964486
H           2.54771522490560   -0.35888914552791    0.68580836688072
N           0.42306857393820    1.46891908824204    1.48061706747621
H           1.19409278016494    0.71256207032912    1.62490290425592
H           0.45006455409182    1.72700349635394    0.46076728758863
H          -0.49834040758458    0.98696936905201    1.64969088665359
H           0.55165522708187    2.27414635989537    2.08189662694408
