    26
        -50.47192580  Gyration_radius:  2.43583762383 Dipole_moment: 1.704
 S          -1.60937932881638   -1.16654842861625   -0.46649532988853
O          -1.87264616034534    0.23892537631834   -0.65708519587077
O          -1.19586691239537   -1.46767445202735    0.90796205134638
O          -0.69022263204604   -1.73559588985169   -1.43483730002128
O          -2.98804169008319   -1.91556685080161   -0.67966727351801
H          -2.71499175641825   -2.82249611344142   -0.77179755401969
H          -0.83845618616382    0.92682917331674   -2.48241382558430
O           0.00666560375828    0.49332931028866   -2.64106653033453
H          -0.14503609493528   -0.41781614010853   -2.31285931511605
O           1.55200571097642    1.71991834702229   -0.91121197792252
H           1.02812659645474    1.21523811989539   -1.59158130804279
H           2.16618148894952    2.26822850648045   -1.40123746055506
O          -0.74267617089725    2.38208567957827    0.48552002072052
H          -1.31743386700910    1.74256850959086    0.02108095067218
H           0.09461303371447    2.37180222762034   -0.01181469267775
O           2.30224798468805    0.13445210838957    1.21889884025760
H           2.19405342599943    0.70246471324394    0.43516838052406
H           2.14625071263157   -0.78493861829288    0.90668751259065
O           1.32950735830053   -2.20357278942090    0.35414145137972
H           0.42548935590191   -2.08513678110616    0.69713014120384
H           1.19843084514071   -2.27104814314149   -0.59752293104773
N          -0.07291431783417    0.53896094487404    2.22463541156945
H          -0.60271682789457   -0.27129453168601    1.81538649419386
H          -0.22292624332118    0.61330778852433    3.22377622466527
H           0.96116032978352    0.38796876738543    1.97465729409838
H          -0.39142424814018    1.40560915594251    1.69454591139948
