    26
        -50.46936512  Gyration_radius:  2.43009369302 Dipole_moment: 1.240
 S          -1.22647452702872   -0.64847730115061   -1.25523943199562
O          -0.42734210832071    0.23846252210443   -2.06261433801099
O          -1.82349940353329    0.00647044408246   -0.09812556302689
O          -0.51305920528701   -1.85495778665481   -0.84776592844177
O          -2.42808311061631   -1.12442288582285   -2.16307143145323
H          -2.93150525666852   -1.66979032928231   -1.56776091853875
H           1.09609411873750   -1.42751055588689   -1.15157315380569
O           1.96952763076072   -1.01604351494372   -1.30210862478888
H           1.85646206078861   -0.51828487570771   -2.11588300022852
O           0.40194733979902    2.44317810149008   -0.89206490748471
H           0.48285757484778    3.11875194705809   -1.56683851668088
H           0.03892399734697    1.64542380979229   -1.34265852168677
O          -1.31242970093733    2.37686788323422    1.38257274576968
H          -1.88511101608118    1.76111420928556    0.91213006753531
H          -0.66542891065272    2.65670876212318    0.72145184423964
O           2.07161403077112    0.87662819023368    0.59588041390104
H           2.20629950253352    0.16325238448851   -0.06776855271593
H           1.65693303244772    1.60876867186019    0.10696102647786
O           0.33543063422888   -2.71185651321660    1.54140537711700
H           1.22584289626027   -3.02806519461875    1.37433126397132
H          -0.05266822410052   -2.54207975551099    0.65866565534136
N          -0.01603391964545   -0.07405672913733    1.85759251294754
H           0.14468990762856   -1.08495686015205    2.05047181870167
H          -0.31280605138424    0.46284199375881    2.66819164966674
H           0.87602530090255    0.35327431042195    1.43830420697154
H          -0.76820661279788   -0.01124092784322    1.12551430620983
