    26
        -50.46841003  Gyration_radius:  2.4748641863 Dipole_moment: 6.001
 S          -1.40608762982391   -0.37811776161902    0.92909021541255
O          -2.42316964738569    0.62819352049866    0.98319264414182
O          -0.21967573228267   -0.02076572008767    1.73662283363302
O          -0.98710566814777   -0.71396378032951   -0.42699589408270
O          -1.97481179154584   -1.69995022389984    1.56453542258954
H          -1.24915116056459   -2.32776816994551    1.47877951402545
H           0.47612661107551   -0.32904594141558   -1.20107343120219
O           1.33458544083918    0.05925296388126   -1.47356932749036
H           1.99642197559976   -0.56855380613318   -1.12195550598298
O          -1.50092755982872    0.94269147247075   -2.50730320047840
H          -0.64782363333884    0.85364956340360   -2.93992884670438
H          -1.51810710991264    0.25164112845071   -1.81980723585971
O          -1.58899112671294    2.70887317910548   -0.48978618639927
H          -2.07892583646728    2.11481597441168    0.11326512377439
H          -1.67848783458944    2.27740164173272   -1.36653562449217
O           0.74429921971872   -2.39626006839306    1.64007883475338
H           1.08390236905918   -2.65035152678723    2.50119975322550
H           0.48103915210745   -1.44410324662268    1.71632695113025
O           2.68517762485088   -1.94982230750847   -0.25346945617388
H           2.76185612641841   -2.72326112655764   -0.81451733861653
H           2.00349044486757   -2.16160484986628    0.41369825194982
N           0.77113946073661    1.93401689562039    0.27449150114168
H           1.16253964476427    1.32658621236646   -0.50653002374235
H          -0.14269873902441    2.39873466688137   -0.06868366874948
H           0.47214364560213    1.25765586846262    1.01960920255735
H           1.44324175397824    2.61005544191661    0.61926552162070
