    26
        -50.47071262  Gyration_radius:  2.41596968309 Dipole_moment: 4.175
 S          -1.31175045169405   -1.50619898623108    0.35436194280600
O          -0.65968069683685   -1.74970352247280   -0.90964226425247
O          -2.12571590036015   -0.30202660112707    0.38167298243157
O          -0.36769936613365   -1.54096650876818    1.47320560393735
O          -2.31015555823708   -2.71388119038311    0.58068534909886
H          -2.84253414307636   -2.40513173805726    1.30577516438795
H           1.10525756713952   -1.85046199310153    0.80638082832200
O           1.84785561736773   -1.96219236696495    0.16829131435501
H           1.42670565892701   -2.41641960022016   -0.57016673082070
O          -1.30441652729926    1.79773697050912   -1.10634730628489
H          -1.73777543076726    1.06979769153227   -0.62094468962532
H          -0.65785538464316    2.17539197330776   -0.49519952210268
O           0.80388194318144    2.26078644363007    0.79789219684608
H           1.11157657604434    3.03558049092904    1.26938479657407
H           0.23243352758726    1.75102928044503    1.44483659320953
O          -0.77348107294858    0.89192849758886    2.34247812609372
H          -0.44027229779368   -0.02560476153101    2.28697169197332
H          -1.56868340249930    0.83917705665186    1.78921513724969
O           0.15159549920837    0.15888231343622   -2.58115921493697
H          -0.21442147114725   -0.65142479869555   -2.17221913049371
H          -0.46146410518161    0.86947900069481   -2.27625329168926
N           2.04758913811482    0.46961820643384   -0.84900348327779
H           1.32511317889955    0.38145704559375   -1.66269544454811
H           2.07172567296696   -0.48591280368287   -0.38050815377734
H           2.96455796600790    0.72947448255711   -1.19432967224835
H           1.68761345317342    1.17958541792568   -0.18268281322827
