    26
        -50.46254537  Gyration_radius:  2.67278001792 Dipole_moment: 2.218
 S           1.03594674282092   -0.99970741234846   -2.25967108521773
O           1.83698668122488   -1.20560681155273   -1.07288089161295
O           0.80341890257945    0.41996164955193   -2.52457143688952
O          -0.19896414339035   -1.76107209976649   -2.27445692908633
O           1.89523959554686   -1.53530667599658   -3.48125315613136
H           1.24295814822744   -1.53376303538433   -4.17394536940779
H          -0.96458679686147   -1.56940382055697   -0.89891585634355
O          -1.47764155523990   -1.46564854442812   -0.05381296668066
H          -2.10141923186085   -2.19383364403494   -0.04474688604972
O          -2.12216880205822    1.15306265552062    0.34269822641543
H          -2.04148004537300    1.22857894761094    1.32025423169058
H          -2.04813917471475    0.19894426027551    0.14837346162163
O          -1.52538889918740    1.09839571888139    2.94405895522281
H          -0.90826044507413    0.33813414103008    2.79313541810530
H          -2.12740670541750    0.82023999776079    3.63465797843072
O           0.00375334482472   -0.94075655776187    2.23145545788595
H          -0.46576493602351   -1.25897952685576    1.44132084663973
H           0.82334498062203   -0.54270542052255    1.89838360071688
O           2.07348104309788    0.38226750015014    0.93389528973392
H           2.99244446420569    0.38736528460130    1.20436323698200
H           2.01712640338269   -0.25168099790969    0.16667601852799
N           0.25539062522954    1.87154843528175   -0.44740501225297
H           0.45418350301783    1.32362058168242   -1.34413063970867
H          -0.75386805461749    1.64541915455305   -0.13468505631856
H           0.92905370967588    1.52471629665130    0.25672127340609
H           0.37176067557048    2.86620994359950   -0.60551870945848
