    26
        -50.46111281  Gyration_radius:  2.51940904163 Dipole_moment: 4.816
 S           1.15528897545618   -1.18417808117392    1.22108669033014
O          -0.23645621583488   -1.51807169454429    1.50544113794553
O           1.77949450151944   -0.35731979225509    2.20173867781205
O           1.23143076844106   -0.60029944106469   -0.14805513169776
O           1.94430482642634   -2.53736313194183    1.14398988548522
H           1.57631173893034   -2.99122024324097    0.37127716951213
H          -0.12375465021358   -0.46427877483206   -1.06959733198131
O          -0.93270700018708   -0.42227646239890   -1.63563983308333
H          -0.92346639926195   -1.23162815895071   -2.15110289784612
O          -0.66986870579514    2.37837420485538   -1.74786017067192
H          -0.79956438399805    1.43322972439784   -1.91458223280500
H           0.26655529897115    2.49285247328810   -1.56396687505248
O          -1.25607633407706    2.55243154414276    0.88024273087786
H          -0.29273405684835    2.43166360746210    1.04311087546554
H          -1.28836150142027    2.76001128899821   -0.07479786587497
O           1.33262220445274    1.90856127640407    0.79434551542962
H           1.35514594219343    1.06159057372466    0.31465996524012
H           1.71629697776641    1.67254556856407    1.64663172744941
O           1.20869077734142   -2.87107163422207   -1.45619845433495
H           2.01202721398061   -3.06302809300877   -1.94372881746980
H           1.28795029532505   -1.94878777423734   -1.13530588282914
N          -2.10070393369879    0.09961990513252    0.75369409364935
H          -2.04444339744963   -0.09140581254588   -0.26053440021551
H          -1.81138788890171    1.13219648566467    0.90889973252461
H          -3.02211681464026   -0.09630825851205    1.12781091665882
H          -1.36447822837342   -0.54583928960124    1.18844078541749
