    26
        -50.46802119  Gyration_radius:  2.4266240645 Dipole_moment: 3.835
 S          -1.31683735865366   -0.97143465868250   -0.83627872090897
O          -1.18999995385332   -0.07715563123563   -1.95443116837476
O          -1.77414425285065   -0.32008130009290    0.38649553797750
O          -0.09458549995389   -1.73307652885202   -0.58546778262426
O          -2.44245475271725   -2.02355040136416   -1.18380303383753
H          -2.78422527625746   -2.23298145491339   -0.32062093084591
H           1.37293684265953   -1.01760687160352   -0.81325009823459
O           2.23586543983454   -0.54494952926605   -0.88408880606281
H           2.78553669534712   -1.07645103795095   -1.46154518236529
O          -2.38770483344452    2.20664695239089   -0.52692333595534
H          -2.21127579663220    2.15189427210950   -1.46857099776062
H          -2.39557719319282    1.29076815802079   -0.21700152246128
O           0.76339075593682    1.68827126858059   -1.53747219767053
H           1.51106269663680    1.07301516165692   -1.46376730315848
H           0.02406807314923    1.14288078557875   -1.87313573143310
O           2.09680295801250    0.17126710852492    1.81352525379243
H           2.42802759825232   -0.02154781311418    0.92195968156977
H           1.60294138183730   -0.63294889497162    2.07627008219197
O           0.53639864015457   -2.02092295481117    1.97415591004842
H           0.22017282324744   -1.92787809917100    1.05032963066123
H           0.89000089679130   -2.90851704323140    2.05071387027262
N           0.02472235875670    1.57647999061832    0.99463557234781
H           0.29934815347201    1.82465039404861   -0.00324245698050
H           0.87138549732727    1.14776809467318    1.47326690739147
H          -0.34771370418884    2.38963651529311    1.47403352511537
H          -0.71814219961930    0.84582349775166    0.91421329720521
