    26
        -50.47523171  Gyration_radius:  2.42144290165 Dipole_moment: 2.943
 S          -0.12528613091139   -1.82578197368993   -0.34817197126553
O          -0.49666923186909   -1.33771503308009    0.96659743810245
O           0.96582246895133   -1.05552558166895   -0.93050620917462
O          -1.24726740054809   -1.94082920241044   -1.25743555916125
O           0.42627244412539   -3.28814124132390   -0.12488626994581
H           0.51101429022097   -3.57921833511310   -1.02530746742160
H           0.53269963370090    0.29411732008591   -1.92888668966503
O           0.14879585330698    1.14515364588052   -2.22311177097263
H          -0.81220698422152    1.00503827289059   -2.19693073428560
O          -2.40239958046364    0.36105319745540   -1.53148708218118
H          -3.23397606288354    0.23914796646623   -1.99223853095512
H          -2.01168214408280   -0.54573523286486   -1.42934298385954
O          -1.60977220451974    1.07985479598913    1.00229064696923
H          -2.10948651533967    1.00742626101633    0.17189298003970
H          -1.26269189215667    0.17528831848203    1.14390043089217
O           2.42486679275094    0.43117536586230    0.75938959104041
H           2.06966526544542   -0.18778415523279    0.09016650001516
H           2.24008799750180   -0.00350198689924    1.61437132354987
O           1.36289478691040   -0.95133994822819    2.81827899981020
H           0.89342029515809   -0.67158974427041    3.60559754330324
H           0.67630823007385   -1.22265893904727    2.17441142548137
N           0.61725815835828    2.21284308859049    0.14071064709167
H           1.42215616692595    1.59308884955136    0.48412254848632
H           0.49373751694486    1.97628358483157   -0.88678823933096
H          -0.27584459241692    1.89201448422798    0.61313801557317
H           0.80228284904145    3.19733621250013    0.29022540787467
