    26
        -50.46839068  Gyration_radius:  2.50349247544 Dipole_moment: 6.708
 S           0.23513525689689   -0.96149317843425   -0.71931603773419
O           0.26815516856940   -2.07136433649471   -1.79848588089731
O           1.32283767702951   -1.22973597560880    0.20702682347202
O           0.38710083765911    0.32954384407839   -1.38494423291767
O          -1.05736488925708   -1.03612361056064   -0.03156193548083
O          -3.06799638354955   -0.64648072571881   -1.70207357209136
H          -2.37811031487474   -0.72595157282025   -1.00696192697931
H          -3.64473990994141   -1.40362115323158   -1.58854841869342
O           2.93615491606537    0.59751529993593    1.10134454934936
H           2.37481002185925   -0.06888315171769    0.62708894833113
H           3.72193578452127    0.12304814210434    1.37720634903978
O          -0.25951096645273   -1.08132092369811    2.43484120473040
H           0.52903844702170   -1.58881080005270    2.20931145538187
H          -0.75409101357962   -1.08003054065372    1.57894317027343
O          -0.34345433544547    2.31755639843753    0.10104410494658
H           0.07430999782822    3.06535948894673   -0.33086248353248
H          -0.14550494599335    1.53717625927683   -0.48204189230325
O          -1.03931000197846   -0.60986839744265   -3.45913350657318
H          -0.23653031414123   -1.66569779551958   -2.56019035100669
H          -1.92015636078492   -0.58622970221630   -3.02900139527394
H          -0.53205966028492    0.09312915216769   -3.02499320241960
N           0.70661159792557    1.35942548198192    2.32660606241566
H           0.66794852134056    1.93064635705372    3.16312975790862
H           0.24723533077906    0.40211690961695    2.47320832527677
H           0.21778163081975    1.82553738904908    1.50854296874831
H           1.68977390797069    1.17455715152277    2.00982111603035
