    26
        -50.46920755  Gyration_radius:  2.47175745544 Dipole_moment: 3.842
 S          -0.68840049360358   -1.53543686716042    0.58860416590516
O          -1.66062314752159   -1.12349398175997   -0.39463948167652
O          -0.33952315776010   -0.45031256615483    1.50548180314352
O           0.49806312095343   -2.15520767159679    0.02603017882967
O          -1.38544800389803   -2.64550753438563    1.47194768834503
H          -0.65673599391670   -2.99905206721792    1.97125667482116
H           0.57875919393448   -1.09938130497504   -1.30238889561409
O           0.50652334862136   -0.42043112509605   -1.99904208682044
H          -0.40641856040776   -0.47948309873677   -2.28909244045408
O           1.05342969431981    1.98568859549600   -0.88102170500592
H           0.92783537815800    1.19823779459914   -1.44865841404578
H           1.63652681371727    1.66421216646151   -0.14776027373645
O          -3.25620653168242    0.96864642630251   -0.55359471940589
H          -2.78874878772445    0.10794602409564   -0.46456779556390
H          -3.61516845997822    0.98797028560068   -1.44197565634588
O           2.13359741285554    0.73492662040660    1.17765315565614
H           1.32160189168786    0.28367840772461    1.45935474536650
H           2.69971017056496    0.02696235517533    0.81453147511541
O           3.12289543947985   -1.44999685051357   -0.10869505230104
H           3.21585205463331   -1.26710931359247   -1.04635627876526
H           2.24789106590094   -1.86209395980169   -0.00628733773561
N          -1.04630125086458    1.93484664851936    0.62197110293126
H          -0.21889476058049    2.08959404868557   -0.06987736390961
H          -0.83120724715782    1.01525738943656    1.08915656024622
H          -1.09957781590305    2.68006788751302    1.30746487521651
H          -1.94943138384264    1.80947166095958    0.12050506579137
