    26
        -50.46675923  Gyration_radius:  2.56897884935 Dipole_moment: 5.712
 S          -1.46681930498447   -0.13314338585576   -0.27482409502248
O          -1.16322907967745    0.29300993849304    1.09475499048394
O          -1.29563510314451   -1.56727163621847   -0.44077597524982
O          -0.65439781105565    0.62288712331925   -1.23254382238120
O          -2.95814641000091    0.16000615773456   -0.55307946748953
H          -3.13285840435334    1.11510168233624   -0.33714602049713
H           0.90757370013570    0.48638734640659   -1.04549015866793
O           1.88894324305809    0.48275617866861   -0.86101506355733
H           2.22240994873144    1.29284355431257   -1.25119399415611
O          -3.29459075588641    2.64509848660529    0.16812349263528
H          -3.61271953525277    2.63871354268207    1.07337936743989
H          -2.34556621164325    2.92128802106940    0.20682731797410
O          -0.66029945739196    2.78239411862887    0.31875251008802
H          -0.71441546541400    2.05072977891567    0.95851573401921
H          -0.54028862778232    2.30620566372907   -0.52012607990041
O           1.30883665269658   -0.33850478692760    1.73002662550777
H           1.73994088546551    0.12498144215206    0.99408677728337
H           0.36222694532987   -0.07111624128626    1.66544015228617
O           2.78145745044242   -2.01015234037572   -1.38726748451479
H           2.48128048205003   -1.07759387674031   -1.34104874452425
H           3.72397629195104   -2.00235238072730   -1.21311903294940
N           0.89629629228780   -2.58289602914665    0.45774050606546
H           0.79962688559261   -3.48340144429725    0.91214907854463
H           1.15395913001555   -1.79898459279384    1.13540436198200
H           1.61162781533870   -2.59772642829298   -0.29929613704503
H          -0.03918956653714   -2.25925991240421    0.04172517162682
