    26
        -50.45488105  Gyration_radius:  2.47417773011 Dipole_moment: 0.414
 S           0.01623626820331   -1.21408399118659   -0.67304563252503
O           0.29301885524656    0.14139279530280   -1.08213232492954
O           1.12132496362228   -2.14816264720176   -1.14604261504037
O          -0.16297867279271   -1.34772640446947    0.75813962819739
O          -1.20596617519699   -1.73895143018306   -1.40171177456091
O           2.04481628797882   -0.35962160998942    1.99586349717754
H           1.78532231997480    0.58226074228633    1.84807882962369
H           1.22932228603890   -0.84903374527492    1.80264768700875
O          -1.49140527875326    1.68380038563926   -2.34430322230044
H          -0.73551913311510    1.24067314551740   -1.91122937329435
H          -1.37503998556633    1.55704878685427   -3.28741407007664
O          -2.00878182248757    0.39604455774255    1.50932055779757
H          -1.27132156268090   -0.22311001059334    1.32479201169679
H          -2.48729763746803    0.02958898830463    2.25571901794971
O          -2.96227216082437   -0.04018085504191   -0.95571962245951
H          -2.62786722159618    0.70334556707966   -1.50948628445716
H          -2.02314981780602   -1.06902034198775   -1.23865088778861
H          -2.76789056426528    0.21875175888452   -0.02619576269707
O           3.22437811405557   -1.23803253364208   -0.11685957012128
H           3.80301383881992   -1.95459752827553    0.15503924989484
H           2.01938734729181   -1.77975059495912   -0.78606317667721
H           2.86413015605378   -0.82640036089508    0.73422166531374
N           0.85648418550749    1.91617254263766    1.18598873730524
H           1.19303184830263    2.85913854066984    1.03752869040580
H          -0.06784020557882    1.97961320754154    1.59717443821172
H           0.73686375702959    1.48084102524247    0.27434029635439
