    26
        -50.46954703  Gyration_radius:  2.49913299417 Dipole_moment: 2.202
 S          -1.55849087302316   -1.17340853346806   -0.68038547937596
O          -2.39869511124411   -0.21959667522689   -0.00537969887013
O          -0.54168457551815   -1.72558671768681    0.21611212868334
O          -0.95322983751437   -0.67715500603138   -1.90917066712614
O          -2.48204187677217   -2.38701455259707   -1.10536378904725
H          -1.89079808041395   -2.98055794088872   -1.55844339897442
H           0.53579297209685   -0.07411319027098   -1.73300008978340
O           1.42019933565478    0.35606423449249   -1.60681938514622
H           1.79299991373985    0.46009927365210   -2.48368884621598
O          -1.96154488527090    1.90523507379192   -1.51872855289614
H          -2.34679891619603    1.24815265701943   -0.90744535664111
H          -1.63465186656180    1.36589917819793   -2.24630781168519
O           0.20720560945592    2.22043376190546   -0.00760770990027
H          -0.61746555627188    2.30738274322014   -0.54245627410926
H           0.81789761367829    1.71818921460978   -0.57477929072364
O           2.17825730394653   -0.14223524259234    2.70660786603781
H           2.85986220752504    0.52986775811562    2.65979847759483
H           2.29958370424248   -0.71661288695740    1.90755982180449
O           2.16824212846265   -1.41966509280537    0.38649372240090
H           2.15650653295268   -0.75333152415012   -0.31947220908823
H           1.26720663170207   -1.78186149473400    0.37742560001611
N          -0.27486761648640    0.39128689264336    1.81176082811931
H          -0.12901902471376    1.19941019046138    1.11884116417876
H           0.61647046943451    0.24921406814757    2.35235620203052
H          -1.07301690492576    0.57735219213269    2.40948174495632
H          -0.45791929797590   -0.47744840098286    1.25261100375645
