    26
        -50.47218758  Gyration_radius:  2.47515788502 Dipole_moment: 6.437
 S          -0.98602440288117    0.87723886258110    0.74711329884490
O          -1.30149831457690    0.32912806025628   -0.57744842017689
O           0.16498029766938    1.74011364518500    0.71432396585379
O          -0.84354160376253   -0.22320573426127    1.70939366804219
O          -2.20748485745175    1.73364654393293    1.19318017270425
H          -2.90918638720049    1.06889242539537    1.33546585795598
H           0.40428043475836   -1.21094831587017    1.45671331649120
O           1.14869386895956   -1.81796462729145    1.21042296727622
H           1.30250926780703   -2.37752486419604    1.97305708229444
O           0.17972048622415    2.05364640412683   -2.04339657192816
H          -0.51166468360082    1.47491636098111   -1.67774890380998
H           0.47324286678193    2.56448025659744   -1.28112732614023
O          -3.44208890263119   -0.51195728859979    1.85885388306747
H          -2.47423120602383   -0.65838331920293    1.87050057505906
H          -3.73695392466641   -0.54561203957787    2.77176466204306
O           2.54067413999033    0.50559614255590    0.35451562167705
H           1.77695203182547    1.07785742854949    0.55641257377069
H           2.33015795769302   -0.34744341920008    0.75632332279034
O           2.10587749262779    0.21185955269279   -2.24823998331299
H           2.50849011011995    0.38311127860606   -1.36389514628076
H           1.49138933134478    0.97019628091178   -2.38568275698583
N           0.39029565148810   -1.49615935916559   -1.39788757983179
H           1.16101439232377   -0.85401256357631   -1.86015863644698
H           0.05019025111730   -2.21124505683918   -2.03046101531373
H           0.77033590728375   -1.90153466814304   -0.52942904586152
H          -0.38613022362587   -0.83469197557856   -1.11256560205342
