    26
        -50.44194546  Gyration_radius:  2.57567092174 Dipole_moment: 6.340
 S          -1.48912596848969    2.01768093291127   -0.51969602174370
O          -2.47228365085856    2.94518284147656   -0.10756831155030
O          -1.76512239295264    0.61394116447697   -0.32158237831696
O          -0.11696840548579    2.31531640314719    0.17812829912446
O          -1.10286766219680    2.25195237351925   -1.99713598902288
H          -0.60396652948963    1.44055267917833   -2.28811972362802
H          -0.15189332059606    2.01943507159242    1.14311493292559
O           1.29469531620562   -0.77418759492488    1.81105342450731
H           1.76384593673689   -1.41174961494956    2.35007783652696
O           2.00279853822553    0.56740569414727   -0.48229360447590
H           1.88415949220061    0.02766181514503    0.32032530265894
H           1.59837342159934    1.42110792111194   -0.28564023661641
O           0.02912910853660   -0.08362533881695   -2.13154708139509
H           0.87189310320300    0.07650045268172   -1.63849237800992
H          -0.66296358854356   -0.14404364900269   -1.44659139560587
O           0.04269033198229    1.43734840890731    2.57534224019976
H           0.65104842657281    1.98027715261458    3.08154125828621
H           0.50486797542212    0.58518619127476    2.38357404183744
O           0.15320069381265   -2.84506831906243   -1.90639656549462
H           0.10037482070194   -1.92513967874472   -2.21991943505618
H           0.91452874851295   -3.23544948553434   -2.33711520802866
N          -0.76089620810597   -1.92228605436843    0.74876644701792
H          -1.33865669537670   -1.12766014891776    0.48435470723720
H          -0.50486817014644   -2.41614483662171   -0.10454726733931
H           0.48873659014340   -1.27052276543478    1.40237346838680
H          -1.33072990156903   -2.54367161575386    1.30799363762423
