    26
        -50.47679049  Gyration_radius:  2.36812918096 Dipole_moment: 3.215
 S           0.60156696397873   -0.97812945459235    1.03935576083460
O           1.09165086714581    0.39484976960538    1.16619808586353
O           1.56875080918685   -1.83338727626744    0.38371066926618
O          -0.68436605552390   -0.98089314501167    0.32311878200733
O           0.34874293861562   -1.53185043376424    2.46012900363886
H          -0.49478255105326   -1.08499909744669    2.73398740858900
H          -1.04097236172266    0.50484602844147   -0.42830987197950
O          -1.17442274001919    1.35873705657345   -0.88860780575437
H          -1.32891435606038    1.99002676258425   -0.17663535174633
O          -1.88660193913855   -0.22723390153404    2.62468796859270
H          -1.65347213540771    0.71440382058670    2.50835137785151
H          -2.00490929247228   -0.56874561416389    1.72781741669839
O           1.48670149770028    1.43689733965869   -1.26057751666954
H           1.57928841143254    1.18110599229251   -0.32084054082098
H           0.52674948970721    1.62275876818201   -1.34414064776383
O          -0.74889016508947    2.11632680299304    1.84089764558798
H           0.00166842122305    1.51920323250737    1.59737479234418
H          -0.38558363742890    2.77307197323122    2.43649328454310
O          -1.05218649416754   -1.35288603803981   -2.31153111517055
H          -1.05273687006595   -1.43782259813025   -1.33728519051144
H          -1.48750101194349   -0.51282136922717   -2.48712770859365
N           1.57917131431212   -1.03327446136086   -2.09202902219692
H           1.65833465871096    0.02116179669893   -1.91478317369997
H           0.59528600777324   -1.23627089957273   -2.40510032342804
H           2.27478942409942   -1.37823933694153   -2.74382261547553
H           1.68263880622666   -1.47683573731738   -1.13133130198900
