    26
        -50.46497450  Gyration_radius:  2.61404536807 Dipole_moment: 5.193
 S          -0.97360864802183   -1.73524651980521   -0.30009945724900
O          -1.97795857183439   -0.74317197022755   -0.58691093596582
O          -0.29208144249820   -1.44414531205546    0.96534180834767
O          -0.01859036013294   -1.94237863533566   -1.37693450790277
O          -1.69964435112559   -3.13113862078006   -0.11425246073972
H          -1.05830767309510   -3.73226808703149   -0.47968452053033
H           0.71470574904048   -0.59369011266819   -1.83714289573103
O           1.13333781648774    0.28828289310270   -2.02099696267658
H           1.97252747457311    0.10124235993914   -2.44405763178232
O          -1.55334806179004    1.05436600695153   -2.57614252539324
H          -1.81490052840506    0.27481180875647   -2.05424854219289
H          -0.59936105656922    0.96928265284666   -2.69224068651401
O          -2.14766198263163    2.12419369163533   -0.19006900185792
H          -2.02399250641987    2.02393983471417   -1.15958443763934
H          -2.64710902712683    1.33667009307050    0.05375722568091
O           2.09248472793329    1.49507891605465    2.34973318339202
H           3.00823620084654    1.74589481899594    2.22292115190801
H           2.08683655077597    0.51935989281746    2.47945346323321
O           1.90593713505138   -1.18525942429144    2.47295034465132
H           1.15187405996959   -1.37115412868770    1.87864254619187
H           1.65613170484570   -1.54660153648379    3.32535698137231
N           0.22484682694440    1.12105272818717    0.42389881555924
H          -0.66897759356841    1.67430768843962    0.28924696349285
H           0.70332829675475    1.02680593935002   -0.48855068606133
H           0.86792236544361    1.51582644963582    1.13860738287549
H          -0.04262708543673    0.15393858284871    0.72100537553140
