    26
        -50.46445006  Gyration_radius:  2.59341607744 Dipole_moment: 6.451
 S          -0.85459371031169   -0.01207380880753    0.14609205010655
O           0.01169767375137   -0.88376144325433    0.92510898326198
O          -1.83856630194691   -0.91451892311445   -0.62401453952124
O          -1.60658622831530    0.89478570751692    1.00640584027174
O          -0.06735816323164    0.74645673129650   -0.84303285825735
O           1.14572875102433   -1.49456725779710   -1.58571039095469
H           0.82232252625694   -0.59452815718169   -1.39129319624855
H           0.86130663649811   -2.00775997279796   -0.82385695242292
O           0.31993072222777   -0.88231868199926    3.53372649463942
H           1.03370490838193   -1.48843593332720    3.73804961999454
H           0.11515982577525   -1.01337594673436    2.57744128143033
O          -0.21083184223682   -1.53696118848043   -3.92776371340468
H           0.30143003432379   -1.67435456902792   -3.10326895224990
H           0.42936664468736   -1.32058791431505   -4.60751663203976
O           1.85976935428060    1.56933811677286    0.75399463637097
H           1.16962785834706    1.38721014970412    0.07550431727891
H           2.40905291170335    0.78183744200168    0.76392378891730
O          -1.84436541281892    0.32072706251960   -2.85262996006959
H          -1.14913625275081    0.85700529744999   -2.44408308200232
H          -1.37826901835150   -0.35587073286093   -3.39245084798091
H          -2.02528525010500   -0.47509792784194   -1.51502619776915
N           0.10788379347316    1.65029256148057    2.75411214115265
H           0.25213132320372    0.78598609862400    3.32195018091252
H          -0.06494548173245    2.47276160751941    3.32089927947496
H           0.92118610485109    1.76570455355817    2.09644476684444
H          -0.72036137695079    1.42210712908461    2.09699394224901
