    26
        -50.47250256  Gyration_radius:  2.48725208395 Dipole_moment: 2.897
 S           0.97898172561043   -0.66258218842978   -1.93555928638588
O           1.23322490784079   -1.89427439687591   -1.19799411152016
O           1.18206056519408    0.51456185747485   -1.11303392366288
O          -0.30752832540009   -0.68469025891167   -2.60465647108643
O           2.07202848612330   -0.59351985785035   -3.08017875294769
H           1.79833277251600   -1.31375883055717   -3.63765162570341
H          -1.52977545907426   -0.53535472079723   -1.59358900271792
O          -2.27584338857123   -0.37891968311327   -0.95702881493824
H          -3.05235870685030   -0.76990387837744   -1.36015899428141
O          -0.95424139606597    2.05396040000846   -0.65984388701841
H          -1.65037119455759    1.40637460542475   -0.84391405539578
H          -0.13003434273175    1.61514326090199   -0.95182469896094
O          -0.61852357771330    1.88016235639290    1.91739718491813
H          -0.90922525283564    2.67801274362903    2.35947189446155
H          -0.76025865640938    2.03135242685676    0.93782817651124
O           1.92315820959916    0.92422369744796    1.44975727256948
H           1.12250845045814    1.38897701456964    1.75509522897616
H           1.86836874302944    0.94764220467861    0.47646218635927
O          -1.53547638648821   -0.70428770005163    1.65310469938171
H          -1.88303497875739   -0.64941539265354    0.74271817078358
H          -1.33050868856957    0.21406232483874    1.90529372129327
N           0.95981283613274   -1.51931237763749    1.36739464322623
H           1.09186338548115   -1.74869295280106    0.33980987109043
H          -0.07168479913801   -1.32926472829078    1.53642087044472
H           1.30634753299958   -2.26854757567877    1.95511260845713
H           1.47217754817070   -0.60194836019090    1.53956709614736
