    26
        -50.46975334  Gyration_radius:  2.44516879478 Dipole_moment: 3.668
 S           1.72354138349733   -0.78901038687820    0.12367879169075
O           0.84112237082704   -0.87351836561872    1.29004660574735
O           2.69255319061013    0.27392264420656    0.22585499708563
O           0.95425506934195   -0.75926147175857   -1.10554215721220
O           2.55104135861656   -2.14285820291144    0.13076582040144
H           3.42111872079752   -1.81469340568469   -0.06684229392846
H          -0.67466123050709   -1.31358089913580   -1.27002343519803
O          -2.36163065184206    0.92400959183077   -0.57969471559284
H          -3.31474634752956    0.99198100689064   -0.63921781349147
O           1.35342210636485    2.58354020941800    0.10535738414176
H           0.97032106576937    2.47922705071310   -0.79687392249354
H           2.01744640290921    1.86648732180652    0.17130246303128
O           0.05021041066309    1.64102310357265   -2.00218306056345
H          -0.87952577141357    1.55307354097475   -1.75614728479728
H           0.43746180701529    0.75767319193138   -1.86906807393608
O          -1.62115801421029   -1.49262937884502   -1.10798225900176
H          -1.62703933517631   -2.04538986312410   -0.30296913631865
H          -2.13283202181339   -0.02930476345727   -0.81199863657621
O          -0.98897561049212   -2.80221995819365    1.18297295788652
H          -0.29004607629749   -2.12932403036392    1.31439950264872
H          -0.53504498455944   -3.64042177757193    1.08359699300451
N          -0.54225318822563    1.36107209891000    1.36034721467749
H           0.21056076872848    2.01034018761202    0.91364037342673
H          -0.85379925532448    1.70072826688339    2.26338318994521
H          -1.34042029633067    1.25996753589306    0.69331432711362
H          -0.06092187144592    0.42916674288892    1.44988216831261
