    26
        -50.44561395  Gyration_radius:  2.54806245092 Dipole_moment: 3.521
 S          -1.56301041695093   -1.45025042126149    0.04389121689655
O          -1.50980826083678   -0.26107936698119    0.87795721140678
O          -0.37660635423170   -2.26246188251227    0.10528701189427
O          -1.95160071024606   -1.12942290393027   -1.33289287024936
O          -2.75280533948639   -2.32317788060133    0.62665030289129
H          -2.69336850046840   -3.09447119574801    0.07353486505573
H          -1.52666675127037    0.08458804832327   -1.93886820440051
O           1.89568277797423    1.42205254440237   -0.17949252944175
H           2.60023646338577    1.93976219980577    0.21074812666654
O          -0.71177607428128    2.05444628665757   -0.06685483314250
H          -1.08339427231369    1.30141999125158    0.44575983273069
H           0.26380033198136    1.94999422084015   -0.00462638156522
O          -0.22748155360588   -0.32245302816389    3.25170827498798
H          -0.73201362398436   -0.28720812009050    2.41663867448767
H          -0.83319119476347   -0.66414898807955    3.91052213240996
O          -1.13222435979613    1.00384032040260   -2.27928658317543
H          -0.18183510819665    0.81900473055752   -2.57481346962343
H          -1.02095329943206    1.57213608575922   -1.37230447415240
O           1.39916629951806    0.74296309014301   -2.70651304524440
H           1.68753856754900    0.94679905385657   -1.78709635970215
H           1.80850499857688    1.39340156287160   -3.27961617516059
N           1.75556232274487   -0.75573081889582    1.15351218106883
H           1.38271050286057   -0.54805714970811    2.07679243897264
H           1.05320544187444   -1.34478963361374    0.69760011211775
H           1.85774345887753    0.52556855269556    0.36056793678339
H           2.59258464447985   -1.31272530799547    1.27119461751201
