    26
        -50.46201663  Gyration_radius:  2.45825517095 Dipole_moment: 7.276
 S          -1.22763994275950    1.32469915187655   -1.20758147099123
O          -1.59847097156900    1.09762354917571    0.19726469851049
O          -0.83202362701128    0.12725084380926   -1.88806301624151
O          -0.24229752072455    2.39580289688909   -1.28522742540581
O          -2.53552714452261    1.86540508618332   -1.91364968849160
H          -2.67470300348921    2.70074859912142   -1.47935531229494
H           1.09354374797694    1.58489240509916   -1.11520383992554
O           1.92932965811361    1.11285247647469   -0.84626343826877
H           2.60515482158895    1.41717141546266   -1.45462807193330
O          -0.82885993714232   -2.42307644613047   -1.03137669792946
H           0.10835491533933   -2.39862730767267   -0.79365309764092
H          -0.97279520744208   -1.58072717056332   -1.49829025401442
O          -1.78487886026700   -1.44712721299976    1.26814052772923
H          -1.60388045754015   -1.97493045910379    0.45807668545356
H          -1.91331317497593   -0.54142843486891    0.94334627577186
O           1.79748720174534   -1.60004552284654   -0.32521223828512
H           2.47291118034786   -2.01454958831615   -0.86376856844801
H           1.75009376458483   -0.66579850810442   -0.60321815541355
O           0.64009366966510   -1.34898224381205    2.20389862115672
H          -0.32664567271293   -1.50069894734406    1.98362548834360
H           1.12831847206904   -1.70615435773815    1.44699475014183
N           0.61832651641102    1.14257753596907    1.57917627813390
H           0.67992267309570    1.82697807966390    2.32430066924845
H           1.35028473484525    1.28729842693234    0.87138869047163
H           0.68359887410385    0.10900356493777    1.95293374170050
H          -0.31638471972759    1.20984216792730    1.07634483862660
