    26
        -50.46412742  Gyration_radius:  2.51450413704 Dipole_moment: 5.079
 S           1.09233961508845   -1.57140559555847   -0.64563804973936
O           0.01134376344228   -2.18270661900663   -1.41463246937035
O           0.86518960824583   -1.65967272993990    0.77832528243642
O           1.35682715243095   -0.21073399543304   -1.09029296329394
O           2.39114856628022   -2.41079795486404   -0.95982224664107
H           2.45021158135360   -2.34303661525838   -1.90722810795759
H          -0.11530200443043    0.63885396665588   -1.02596153366460
O          -0.94259426965776    1.09516825505546   -0.76718261663210
H          -0.74295876241029    2.05119174963346   -0.87343639428125
O           0.20426618435335    3.50315472083113   -0.87723632114147
H           0.95292921036979    3.10545946354336   -0.37239525556169
H           0.58468356549893    3.85031602645393   -1.68474706983837
O           2.05375819778960    2.01739896112426    0.37524207749404
H           1.99442304748612    1.23191741338293   -0.19529080805226
H           1.59548193379371    1.77350209927063    1.19226207863846
O          -1.47824009048741   -1.58753070764280    2.21646730390309
H          -0.64840251902452   -2.03947865922955    1.99883345025220
H          -1.18580320470078   -0.68678388768125    2.45350078328544
O           0.00149526541371    0.67153697929239    1.81597332644382
H          -0.45645173864273    1.01796682022841    1.03076300018962
H           0.49498685756970   -0.10831628694837    1.50026089974754
N          -2.13111439065845   -1.23576044713010   -0.31288111837472
H          -1.97904507303500   -0.22588565039053   -0.50663244330856
H          -1.32472910550507   -1.73417414155863   -0.81018522709357
H          -2.01124007097983   -1.40943888139501    0.73511579504524
H          -3.03320331957695   -1.55074428342232   -0.65318136247255
