    26
        -50.47214155  Gyration_radius:  2.41830967169 Dipole_moment: 3.330
 S          -1.71074974994236   -0.29101982077724    0.72244786695507
O          -1.72610104486089    1.08237054777877    0.26195814775911
O          -0.59995585408377   -0.55476491662505    1.62533354800869
O          -1.77028871503467   -1.26057927368120   -0.35783442531336
O          -3.03190012455017   -0.48607939354057    1.56595365680665
H          -3.01783689491905   -1.42109145023340    1.73979738638585
H           0.80350510412717   -1.05222856828819    0.73515790207583
O           1.59635423156916   -1.21490616755937    0.19181874087739
H           1.32888894401423   -1.93601178659363   -0.40945854284005
O          -0.86590572664808    0.25656493512795   -2.34704703294786
H          -1.40959614141820    1.04571746310864   -2.30739771412547
H          -1.23595633693684   -0.33422682953554   -1.66087571053460
O           1.61449863037359    0.85854889865024   -1.46385354388409
H           1.78965147668263    0.05464831538494   -0.91662264488553
H           0.79854133655288    0.64418032168154   -1.96300747771517
O           0.18577932373932   -2.75792505070587   -1.53569376691276
H           0.18417479667918   -2.37461727847643   -2.41597583720281
H          -0.60368497732480   -2.39938308681432   -1.09523898125192
O           1.55560365884255    0.76119048436971    2.53148204859614
H           0.72637173185691    0.24952038692502    2.47498002470193
H           2.22827469626068    0.17762847288350    2.16559391931673
N           0.63582853048236    2.22679652092829    0.49972912844553
H           0.67770710300242    3.23937029554912    0.49727463540714
H           1.12405904610662    1.78720869021995   -0.36450645813344
H           1.08143953511442    1.81676621968145    1.36109018243128
H          -0.35870257998450    1.88232208031477    0.46489492778226
