    26
        -50.46802615  Gyration_radius:  2.56449956343 Dipole_moment: 2.927
 S          -1.59803665124079   -1.37449294047673   -0.31632521216484
O          -2.13872716509198   -0.27945112425216   -1.08054495857877
O          -1.19870078827177   -0.97817898693023    1.03159923963346
O          -0.51775216514965   -2.07572181370558   -1.00302921279511
O          -2.76895507291701   -2.42711194758683   -0.14309308728242
H          -2.36309371568872   -3.17690188438915    0.28327001113285
H           0.27244847090556   -0.78164421365155   -1.63794293464843
O           0.65515627907818    0.09342217075005   -1.88307100234058
H           0.13180799267425    0.39502939589455   -2.62872834977450
O           2.83868184868202   -0.17641026802685    0.02692248662223
H           2.39037790609279   -0.07756625815965   -0.82033586056332
H           2.44158530962144   -0.97559919771340    0.43487578566942
O          -2.44662872474460    2.28896622856978   -0.42469341237836
H          -3.29736786041324    2.41178908988632   -0.00158116094530
H          -2.44693617559628    1.37219597541306   -0.77277516526958
O           2.25894566635038    1.86635774875587    1.60021750026958
H           2.89001556984414    2.57287278061300    1.46055600895795
H           2.60266019790286    1.08289536814939    1.09951956811326
O           1.29790287888453   -2.18438389871872    0.96979169784657
H           0.67134334192030   -1.79021473432548    1.58667871181422
H           0.77006450790640   -2.33088574950116    0.16452217807005
N          -0.08148410257887    1.33571382385809    0.42714408457683
H          -0.49748404139906    0.47750901921228    0.86460321997904
H          -0.85490915921730    2.00575686133328    0.26971209214531
H           0.71409077678424    1.70775374403198    0.99386679975503
H           0.27499486566462    1.01830081097840   -0.50115902786529
