    26
        -50.46300311  Gyration_radius:  2.49755844495 Dipole_moment: 2.181
 S           1.30683755323405   -0.27604691963370   -1.71293634443049
O           0.36493239173047    0.52545778279164   -2.46739798278117
O           0.68700550077174   -1.42570746945935   -1.06997761517061
O           2.09633831250801    0.51256313228303   -0.78550247281246
O           2.32714111626464   -0.87836867954466   -2.76574959975781
H           2.64610791280859   -0.06979986148773   -3.14914312950365
H           1.43786669212499    1.19612427703144    0.48520574632482
O           1.07367078784443    1.55587002760720    1.33785719981082
H           1.84129648912735    1.71945707758455    1.88817208070537
O          -1.82192094786527   -1.09571370284872   -0.23571118887216
H          -0.98222433051450   -1.34433379277838   -0.67358139173722
H          -2.09219704081748   -0.26494437516977   -0.66907644144745
O           1.31868230158971   -2.32138990690042    1.31783657509824
H           1.22580848396336   -1.96973803965742    0.40013240290986
H           1.20576850772346   -3.27019263910213    1.23972892539470
O          -1.73485944852215    1.96231253892651    1.23435327385054
H          -0.82369690906661    2.27256361806774    1.24106491060709
H          -1.95357175850003    1.84402509182568    0.30052948591482
O          -1.92987281892712    1.29758311635522   -1.50730718433830
H          -2.45785103721006    1.56882243539611   -2.25934613010070
H          -1.03774876524678    1.06842137436642   -1.86962361660889
N          -0.54642981959884   -0.52385511394431    1.97629856098970
H          -1.07560764156984   -0.45311572087085    2.83799516236356
H           0.14896020465009   -1.30422780030807    1.96907639751849
H          -1.20147769040631   -0.69155120034931    1.14044293120810
H          -0.02295805607836    0.36578474982260    1.79665942486585
