    26
        -50.46742659  Gyration_radius:  2.4019920121 Dipole_moment: 4.781
 S          -0.45051800262777    0.18537755257322   -1.65095742523566
O          -1.39837527195568    0.07917138055729   -0.54187911457404
O           0.91929354197398   -0.39177142041162   -1.12649801102692
O          -0.24580109286690    1.55283982376003   -2.06237789366801
O          -0.78708252213116   -0.74770155414162   -2.72336897988567
H          -0.38615454935076   -1.99096597554115   -2.12054724807996
H           0.01760914050240    2.54254142660587   -0.82073041217265
O           0.27061621606353    3.08294461272686   -0.02630826001069
H           0.50081143828759    3.94952152822688   -0.36478130449166
O           0.44703009603196   -0.21309952639713    2.52580858126588
H           0.45536138526108   -0.25982433933349    3.48237423851578
O          -0.77696813553189   -2.04175947058531    0.81194914953288
H          -0.17443135189895   -1.63544963679683    1.45808362153437
H          -1.18916747927121   -1.26186349307768    0.36607911469098
O           1.98046053682850    1.09464317175832    0.67001882156398
H           1.37659851580266    0.22304341385703   -0.46919166676061
H           1.47608805893558    1.92218149071779    0.54859860180652
H           1.59485380281226    0.64054080033811    1.44110294625818
O          -1.29699183485749    1.54405786764414    1.67069507700598
H          -0.26705582303627    0.44316893166992    2.28488549569182
H          -0.83437777317612    2.31758502775779    1.31808911292775
H          -1.54255352654065    1.03587348153068    0.87105039855745
N          -0.00819045459678   -2.85320154351250   -1.53921222267541
H           1.00219905012248   -2.86655753493662   -1.64556161112707
H          -0.42721809953361   -3.72601247489089   -1.84456329445263
H          -0.25603585524997   -2.62528355009497   -0.51275771519532
