    26
        -50.46596260  Gyration_radius:  2.52178778534 Dipole_moment: 2.181
 S           1.94633618531805   -0.92623425713542    0.15450074258939
O           1.94915134677607   -0.20558007693380   -1.11687825688277
O           0.67855633442118   -1.59204518722205    0.39061284636417
O           2.41360056569203   -0.11718561749295    1.25591438903802
O           3.00609145441286   -2.09868688037609   -0.01420048240251
H           3.83904101793504   -1.66159768730997    0.13192419030148
H           1.36319928692534    0.99807964931426    1.81529685650194
O           0.66782744515807    1.65640837600959    2.05661599193308
H           1.06064793040840    2.23611566042600    2.71103067364546
O          -3.14591538091063    0.05090205533475    0.36526779316120
H          -3.76999015964234    0.59553228114789    0.84572245186485
O          -1.84736999129117    0.83169467845149   -1.81221616992793
H          -2.43219688814853    0.59729652686632   -1.05422208304148
H          -1.03827234775952   -0.36400561116748   -1.99879070332420
O          -1.14689199867107   -0.43317479658733    2.03737329656613
H          -2.43300538302184   -0.18350758337799    1.01025545841164
H          -0.51890033118644   -0.99429989954934    1.55181685876945
H          -0.66462034458008    0.39233584391659    2.20029342781207
O           0.29554670115729    1.93273535525747   -0.67548867586697
H           0.99673729729637    1.29440190263379   -0.88598070413501
H          -1.15214984862349    1.42244926540712   -1.43949994502308
H           0.29864780427611    2.01478597899818    0.29079696594746
N          -0.29601256435014   -1.19204111003209   -1.99756701103914
H          -0.27260199023157   -1.62679960797991   -1.05412037602693
H           0.65421979627776   -0.75950270063079   -2.03203759523661
H          -0.45167594766500   -1.86807656797037   -2.73641997000696
