    26
        -50.45028648  Gyration_radius:  2.64101766262 Dipole_moment: 5.318
 S          -0.05522887694622   -1.42765950388804   -0.66742605988981
O          -1.52134037263926   -1.15835382145312   -0.31396833648316
O           0.76555732082586   -1.48099486144837    0.49927071100416
O           0.36207105696373   -0.44932822943792   -1.65423186298696
O          -0.11962646930848   -2.81184137445875   -1.32479183289518
H          -0.68782750485145   -2.64734860848507   -2.15635223065806
H           0.60313135651718    1.07252488334268   -1.05409996224187
O           0.56790107052565    1.97700696593793   -0.66777923986190
H           0.85126905254303    2.58080535133865   -1.35637608890370
O          -0.70106112229070    1.17449958968703    3.00317325023315
H          -0.99170912793643    1.86999494434118    3.59491984148406
O           2.88225252390132   -0.43633709050083    1.80946654252246
H           2.87795289838504   -0.91681541945185    2.63945854175530
H           2.18124466940364   -0.84298154876147    1.26917125573981
O           1.59047263019580    1.93450792850679    1.95619213283297
H           2.17749877936621    1.15066773496409    1.95325137207904
H           1.33084647369798    2.05687358062877    1.03129584434434
H           0.20765491201432    1.43678502761025    2.69510145640286
O          -1.72897341397428    1.15366531720632    0.58860585010883
H          -1.65996926880225   -0.18968992991185    0.09449733983371
H          -1.44953344378590    1.09996117583346    1.54304308673669
H          -1.00434286698034    1.62492662256213    0.13943648420536
N          -1.51153308056895   -1.88116399607017   -3.26870459426727
H          -1.55049330413541   -2.15901719919525   -4.24036746091732
H          -0.96690554735384   -1.02933318469625   -3.17758194585534
H          -2.44930832470803   -1.70135438421218   -2.93520409428219
