    26
        -50.45538181  Gyration_radius:  2.56575134764 Dipole_moment: 4.089
 S           0.97898477135239    0.34418262035407   -0.15557455449849
O           2.17939571701477    0.74114964042950    0.73137468800866
O           0.43640347511328    1.58584756037745   -0.70186046265444
O           1.40363078316152   -0.59902804144320   -1.16072850133776
O          -0.02685066137083   -0.26456645697330    0.74992499152336
O          -3.07408131563482    0.08259526261581   -1.45875682927671
H          -3.59872715437509    0.74490315217742   -1.91316273863783
O          -1.34278529962536    3.04990147945248    0.47290799881305
H          -0.92673133508385    3.52190410187819    1.19658502821835
H          -0.60678600066885    2.62348267233520   -0.03896503284091
O          -2.27705996818086    0.71701566067515    0.86339533275595
H          -2.68771929541991    0.43259988569423   -0.04283517911014
H          -1.30798641995711    0.24396957278344    0.86787813797706
H          -2.04454144311317    1.71047772701759    0.78146397294794
O          -0.73919976862223    0.19571421641404   -2.62489176021343
H          -0.35006280119571    0.94085035612360   -2.13272927935827
H          -0.09167504124559   -0.50660507532001   -2.47700793638916
H          -2.21274449790367    0.02236829612442   -1.95785847439900
O           3.39368389349719   -1.47175394767034    0.42216698523606
H           2.81315060677718   -2.03124833613933    0.99533901101187
H           2.95712759902106   -1.47341854195082   -0.44318596615331
H           2.79066027302361   -0.06490477755976    0.71279278544184
N           1.34438217232453   -2.60613591268866    1.74415869550750
H           1.29257209967715   -2.64929763624519    2.75412287503711
H           0.93949313407046   -3.45890817622936    1.37861586789170
H           0.75746648751612   -1.83109530211776    1.43683034456299
