    26
        -50.46742645  Gyration_radius:  2.40205764136 Dipole_moment: 4.772
 S           0.04756319009854    1.61920889614026    0.57875602266669
O          -0.06948134221229    1.17950610042853   -0.93040307031305
O           0.57540709572367    0.46607958969041    1.30774075706189
O          -1.26039550990035    2.00712444862343    1.04751089165087
O           1.03285754531044    2.69565235815348    0.51018729928600
H           1.95211680851200    2.14477733620178   -0.44870857971656
H          -2.26487371222823    0.75826524358262    1.19822544607879
O          -2.86353892451526   -0.03429276101184    1.17701821344136
H          -3.73755997367059    0.29488394066114    1.39204405816679
O          -0.02542415975722   -2.49226273128714   -0.64024674931716
H           0.00859789609839   -3.44571286390400   -0.72405625351923
O           2.16802356592963   -0.80294241285262   -0.29582288142444
H           1.52797475589874   -1.42509475481539   -0.68155209766695
H           1.66640498350993   -0.39820850621976    0.45341724967337
O          -0.78003817720830   -1.77220256493491    1.76268512030850
H          -1.67846408584711   -1.41396804646990    1.72765716503848
H          -0.27842100530343   -2.30485287962915    0.30808251062008
H          -0.21299653816817   -0.97512796458223    1.79360105414921
O          -1.88598427108960   -0.59021627515344   -1.29256924996857
H          -0.82937895063753    0.53466966264748   -1.09169497959193
H          -1.30795822486059   -1.36964299711645   -1.20372352476813
H          -2.38883624405068   -0.51564391677319   -0.45862409049805
N           2.54436459334271    1.60484695381820   -1.21206377832930
H           2.09501929683776    1.76538255295742   -2.10910401387305
H           2.45183563862628    0.56163119159075   -0.94777214218341
H           3.51318576954891    1.90814041026879   -1.22058436701492
