    26
        -50.46742659  Gyration_radius:  2.40213627092 Dipole_moment: 4.778
 S          -0.96075911890362   -0.17158600406254   -1.41825476579801
O          -1.23761908650433   -0.83677460380375   -0.14520169618430
O           0.55381937868439    0.26322808050825   -1.37610054289309
O          -1.77226543745758    1.00641027127334   -1.60475614309657
O          -0.97654744039517   -1.12459261504011   -2.52538979625957
H           0.26088376735412   -1.81830864476132   -2.28803010576729
H          -1.79140639880847    1.95842100163704   -0.30673470411421
O          -1.68578185882898    2.54974340501927    0.48458948360891
H          -2.15205166418351    3.35861515708999    0.26810273075858
O           1.25115655352393    0.16363505204115    2.24403468508663
H           1.58690800294315    0.14920861878463    3.14088078073693
O           0.93049034211483   -2.05542105263194    0.58466333450056
H           0.01577147925793   -1.72319148275015    0.41213534179322
H           1.32644988097371   -1.34762856715085    1.12124388681259
O           0.98872468634624    2.11577804066697    0.33922162420559
H           1.22673637195284    1.53350881369468    1.08337103461040
H           0.72018256589869    1.03964079245680   -0.75270848747876
H           0.07974033721032    2.43116709496620    0.50729807644095
O          -1.35778338890213    0.39535830783592    2.20425289179233
H           0.25591396213282    0.21181858113995    2.31971040606482
H          -1.60192938527929    1.28016943983142    1.89739017019630
H          -1.47949571734004   -0.16677167978642    1.41239072834685
N           1.24361593180256   -2.23331753963373   -1.99371335255570
H           1.95492967584058   -1.60302927551226   -2.35308434687642
H           1.37265616254545   -3.17847904417846   -2.34122281085668
H           1.24766040802350   -2.19760217765099   -0.91408840308651
