    26
        -50.47318286  Gyration_radius:  2.4497640066 Dipole_moment: 4.461
 S          -0.31609658698200   -1.35053596855898    0.17142422004956
O          -1.58518043728734   -0.72372437768913   -0.11221141928736
O           0.35994506733695   -0.74949541293327    1.31675671488679
O           0.57319922838287   -1.32827582775688   -1.00062821900439
O          -0.60190932698622   -2.84452715827209    0.51183100886272
H           0.28548293536918   -3.25139756736218    0.51874620821498
H          -0.22474789267906   -0.37238400188244   -2.12732497883099
O          -0.51810772096576    1.17919264556566    2.93546092755770
H          -0.23643457828627    0.37648911380922    2.45163892556513
O          -0.82362394390813    0.27327832854449   -2.56301838242388
H          -1.69045996389143    0.03045607602011   -2.21906577319072
O           1.91207873713820   -3.39700955613973   -0.12381883689807
H           1.63181976204672   -2.57532818963225   -0.57691911532257
H           2.02984116174627   -4.06145820918982   -0.80632550136720
O          -2.02321937707162    1.75378128677160    0.78558339931572
H          -0.95242676785448    2.20242571366733   -0.21258703871210
H          -2.07819632705146    0.81717237864254    0.50461542794919
H          -1.62031180437380    1.71000455944205    1.67645254698331
O           1.89973105893674    0.96002281035613    0.08344941654930
H           2.24213545354960    0.40190432367040   -0.62000028124390
H           0.28735204138607    1.58817380043413    3.25631283927436
H           1.39349440725249    0.33496623810879    0.65572887186008
N          -0.16971535704945    2.28106230149228   -0.95490225917670
H          -0.05820726915007    3.22904375829841   -1.29548901844648
H          -0.43520360271505    1.60856598474976   -1.72870325317089
H           0.71876110309164    1.90759694981171   -0.52700643999471
