    26
        -50.44757476  Gyration_radius:  2.43957349786 Dipole_moment: 7.123
 S          -1.54926866678356   -0.86537965958483   -0.42156830683192
O          -2.72649645492799   -0.47041356750996    0.30184866392985
O          -0.40708173433611   -1.09661031365764    0.46858287009389
O          -1.15183916349487    0.11214834131031   -1.45393955925542
O          -1.84747634640673   -2.20469231913053   -1.15768585763789
H          -1.04959757147878   -2.33903120794210   -1.73250368897721
H          -0.62345338169644    1.36427565804985   -0.84107895003002
O          -0.21675935397372    2.20524000447336   -0.42933658951853
H          -0.12691057574648    2.83114216991783   -1.15009178973404
O           0.64588317941916    0.77715143052977    2.93601797194457
H           0.68867506290765    1.41728097795729    3.64938001370727
O           2.00834315534596   -1.01902445592164   -0.13091347825151
H           2.42352594972950   -1.59587709071780    0.51409107290016
H           1.00118064225602   -1.11885179986190    0.03782678403712
O           1.82634381937769    1.31120499420651    0.79473017023472
H           1.99936699378267    0.36841548704808    0.36847264303238
H           1.04698813847634    1.71738877368047    0.26069285255705
H           1.39887486521586    1.09416745712639    1.73576045124355
O          -1.64796012395453    1.33605377140447    1.88796135147466
H          -2.13371315842669    0.60834223984308    1.44067166280193
H          -0.29322268452815    0.82640891141872    2.57677403601202
H          -1.38813062620279    1.93024795347205    1.17365012716284
N           0.35093197277452   -1.96300018394692   -2.59784064990042
H           1.23851761485465   -2.01705331292680   -2.11370550858283
H           0.03458416826715   -0.99729314295861   -2.55082768620543
H           0.49869427877153   -2.21224110372337   -3.56696862484411
