    26
        -50.45538171  Gyration_radius:  2.56586095567 Dipole_moment: 4.090
 S           0.21475688485515   -0.68320848037976   -0.76691942059835
O          -0.11652069289200    0.70370174897292   -0.35576693239930
O           1.57295536620405   -1.01430001748538   -0.41155988923909
O          -0.78118479425677   -1.59477295636732   -0.20866411446014
O           0.04701485354305   -0.73428672818204   -2.30135596994465
O          -0.78513442376532    0.06991148234400    3.31039478824324
H          -1.35020601344373   -0.44393909412649    3.89097400017699
O          -3.21308696004843   -0.93354134558903    0.37371105469304
H          -3.71408632091457   -0.84781551701839   -0.43944811658205
H          -2.33941037061047   -1.33069053666114    0.12011089621972
O           0.62508872937914   -1.71894374445227    2.03179384923807
H          -0.00717261818206   -1.94796077058022    1.32706338453810
H           1.40355295460711   -1.44790393457738    1.52684317062390
H          -0.15473287477434   -0.58021447185782    2.89235816873933
O           2.46782310834529   -0.12356781567392   -2.78520346267310
H           0.96253559340994   -0.50823864174543   -2.66785894958001
H           2.42158022315995    0.83472660608965   -2.54400625520462
H           2.64302253089670   -0.57809192958895   -1.94726614206518
O          -1.92127660616931    1.06410016712376    1.27312757181284
H          -1.12640696034988    0.97659073762763    0.54965069672028
H          -2.57825422615830    0.33671874109616    0.97823861362420
H          -1.49122128070395    0.73546144192120    2.15520293149736
N           1.92930599789917    2.26458851803849   -1.67151305943729
H           1.18513376889653    1.81414900997221   -1.13960362957272
H           1.51843293140139    3.03532545486407   -2.18310220174917
H           2.58749120969745    2.65220209624895   -1.00720097260204
