    26
        -50.47117018  Gyration_radius:  2.45854492102 Dipole_moment: 2.476
 S          -1.87023088650836   -1.23477000392213   -0.31562830663043
O          -1.18027077521910   -0.54412891287610   -1.39288393969875
O          -2.92759844022394   -0.48710897616491    0.30182598997979
O          -0.89886084176747   -1.75269332967473    0.65934225570813
O          -2.55026889896761   -2.51990333001543   -0.96147295679826
H          -3.46800757362631   -2.38596560158721   -0.74665541001579
H          -0.94974529161189   -0.34707328749841    1.58053845367076
O          -0.93159739658766    0.53556621621316    2.00557264460010
H          -1.81893436597372    0.65495251337032    2.35226294963094
O           1.51644526258932    2.13494713407504   -0.75800345139939
H           1.75040638863648    3.01567188827035   -1.05165345899197
O           1.40323722114604   -0.28017001811651   -2.08825277359490
H           1.55359404941071    0.64117612745513   -1.80881984550937
H           0.43338029988800   -0.40026894408947   -2.05776359893642
O           1.83460053889028    0.83071993580155    1.62899089696766
H           0.93169550386751    0.86705871531384    1.97861071483617
H           1.87525013329400   -0.59500627141761    0.89048764711108
H           1.84396716540839    1.42240472332825    0.85254268105938
O          -1.04292008510585    1.91941310005944   -0.38652273609231
H           0.51966638632773    2.12708947162074   -0.65351290706161
H          -1.25931446555611    1.11286458453848   -0.89087916116690
H          -1.11792832748981    1.64395900794790    0.54292496118524
N           1.67268326451743   -1.41711866443101    0.24899527443452
H           0.66597440054640   -1.68797304487793    0.41413638742379
H           2.29802638019923   -2.19692152682799    0.41326389549251
H           1.71675034391462   -1.05672149650038   -0.75744619620392
