    26
        -50.47117019  Gyration_radius:  2.45847220386 Dipole_moment: 2.477
 S           1.37956627054911   -0.46601775726894    1.73219380952359
O           2.32529918440007   -1.41588432708231    1.22075825830701
O          -0.00839439640270   -0.89541122423588    1.68059330446015
O           1.52283200458206    0.86269334820786    1.11857476932240
O           1.73619233884452   -0.26449044020707    3.26956819181308
H           2.47229204796870   -0.85794225427071    3.38065150927650
H           1.81900272493801    0.21726317516480   -0.40526080713772
O          -2.11050963511402   -0.76655460624218   -1.54585018158536
H          -2.70190625627431   -1.32386989197223   -2.05206782757965
O           1.86604788618561   -0.21275823063021   -1.28442903091993
H           2.67571342325151   -0.72807914375335   -1.25824289537300
O          -2.30994784142354    0.30809082946381    0.98807295266223
H          -2.46310608686137   -0.11817319935231    0.12531548019307
H          -1.59784325042070   -0.21455816312924    1.40730991837972
O          -0.05957178726698   -2.10776751917927   -0.69171820593072
H          -1.35919978498633   -1.35540601751124   -1.24018603391730
H           0.70023540867921   -1.62478337256521   -1.05879170926222
H          -0.04603741756392   -1.88424827366252    0.25781032194824
O          -0.34999630849618    1.20332228681629   -2.26645627613984
H          -0.50902529975280    1.92350069865841   -0.83961682579109
H           0.49365697471323    0.73489136188703   -2.17911791755365
H          -1.04340512375651    0.52057679817709   -2.18811714024173
N          -0.59471463081935    2.11549021606708    0.20162183562748
H          -0.70275889575997    3.10220960189583    0.40368192079533
H           0.27394668688775    1.72153682943531    0.65355791888563
H          -1.40836822610680    1.52636927528706    0.57014466023936
