    26
        -50.47117024  Gyration_radius:  2.45849582231 Dipole_moment: 2.472
 S           1.96557434615119   -1.03281071667845   -0.43769553853101
O           1.23853413530283   -1.19986496778866    0.81018480674081
O           2.95231773914949    0.00854593772334   -0.42694301992114
O           1.02433986354793   -0.91009061439857   -1.56078351950614
O           2.75332003316732   -2.39177334880264   -0.69046464911821
H           3.65520241347637   -2.09080750360839   -0.73763687858705
H           0.95221583798144    0.76422250937746   -1.42439081216576
O           0.85886221477843    1.71785872067559   -1.21975106318129
H           1.72903530306992    2.08716804390833   -1.38774981528743
O          -1.66860337562794    1.10607219513749    1.84993606925289
H          -1.96711706801530    1.60179532660130    2.61267253933362
O          -1.34788043040377   -1.60133384047960    1.42279839622084
H          -1.57409859927638   -0.71625296088440    1.76186524676215
H          -0.37209883795564   -1.60860024557855    1.36119864803360
O           0.89449768856148    1.34501894119096    1.52095445732045
H          -0.67577601885044    1.23429146831691    1.80010514415761
H           1.18021447383045    0.41641225186281    1.43243679544545
H           0.97849393412875    1.70464300361529    0.62156064655810
O          -1.91626249728051    1.52447372867416   -0.84507549915303
H          -1.96126527382810    1.51189340666991    0.13006003335304
H          -1.02374427100495    1.83100355876357   -1.06480552589617
H          -1.83507467431441   -0.05260051299272   -1.13820927553069
N          -1.56006616378988   -1.07858862054709   -1.12853040228234
H          -0.53761349325641   -1.11957745917454   -1.38718213859825
H          -2.12462500343311   -1.63465652199850   -1.75955779244128
H          -1.61838225610135   -1.41644176958697   -0.11499686299162
