    26
        -50.47265979  Gyration_radius:  2.3959877943 Dipole_moment: 4.357
 S           0.46660075796671    1.09246026859506    1.31457541282085
O          -0.58545006821555    1.82689460729411    1.96453906047220
O           0.57490391186987    1.40618269874617   -0.11087451058032
O           0.44760249842390   -0.33922425217839    1.53802554184814
O           1.82708944266651    1.60995904715025    1.96814699440548
H           1.52101172687852    2.40364625417144    2.39217279158096
H           2.02713970694194   -0.87882071814214    1.27908707125380
O          -2.62164477609379    0.53095555858699    0.75215831800694
H          -1.99803707249892    1.03038116834654    1.30948894636236
O           2.93250850617527   -1.02475796736724    0.93997068525522
H           3.45153985752151   -0.29432374447758    1.28203366741968
O           1.80708924851645   -0.52783525351370   -1.45072904803470
H           1.46550516169296    0.29410004606005   -1.04115851626890
H           2.35965970471653   -0.91977788015785   -0.74493863296793
O          -1.44308130288204    1.20285910612997   -1.74370400268294
H          -0.68852943996283    1.34808513607421   -1.11833547599550
H          -1.41984984483125    1.93421718701796   -2.36241610112515
H          -2.52121920054808    0.88482950700463   -0.14038996904910
O          -1.52610755918702   -1.89016853245090    0.65368708727448
H          -2.16355413942159   -1.14628486022198    0.74987816255948
H          -1.01534355348496   -1.72164798215739   -0.76948667768945
H          -0.75173008143378   -1.56705212370376    1.15049454956360
N          -0.63884896844631   -1.41685389346135   -1.74102017056222
H          -0.82033624903443   -2.11748599755514   -2.45046834712008
H           0.40809285767999   -1.20436425992708   -1.65232667121544
H          -1.09501110500510   -0.51597310982050   -1.96841017557812
