    26
        -50.45538171  Gyration_radius:  2.56581203351 Dipole_moment: 4.092
 S          -0.75091547747650    0.67085134915336   -0.29581981216467
O          -1.68445987666967   -0.26430820744203   -0.87411663129262
O           0.02715115080281    0.03471992821052    0.79602990676950
O           0.17642733003317    1.25435356062325   -1.26226480072915
O          -1.51750166547625    1.84852095836766    0.34484464569695
O           2.55076003363809   -1.83068265343604   -1.31181408466559
H           3.23049298012196   -1.68244468808906   -1.97237424505350
O           2.56845088679986    2.06107849856960   -0.69890360305356
H           1.65132509909359    1.86541327188206   -1.02445739899782
H           2.51114461857020    2.88984384795728   -0.21991391821692
O           0.33759827881878   -1.08934017128761   -2.48462314190600
H          -0.51551655314939   -1.32113814385094   -2.09353713252123
H           0.38359432766593   -0.12992090528687   -2.32270877682435
H           1.68022561475870   -1.66475591540169   -1.76946307299045
O           2.46872453729283   -0.13814822278493    0.57449756511064
H           2.67153217491030    0.75320563021494    0.11404411704634
H           1.40420331159422   -0.08636531651632    0.73838036817556
H           2.57354448277457   -0.87430335870350   -0.14524631041592
O          -3.58773841099733    0.47056184430224    0.87667399372739
H          -2.40775144601774    1.45561756548200    0.62170483075221
H          -3.33181373971103   -0.03060626208717    0.08754872170595
H          -3.21918322315200   -0.04991670699677    1.63288078293597
N          -2.03790754176777   -0.92250915351540    2.57698010411483
H          -1.23230443088409   -0.65780160985022    2.01080895808181
H          -2.09502825057552   -1.93317553243371    2.57265013638746
H          -1.85505422101119   -0.62874960714129    3.52819878833781
