    26
        -50.47416542  Gyration_radius:  2.42045345318 Dipole_moment: 2.132
 S          -1.89656114773001    0.55355306218801    0.31306732266749
O          -1.19119979646413    0.26642043481129    1.55006285916910
O          -1.89241662392661   -0.57373500867011   -0.60143484074587
O          -1.45112879587683    1.77799822290289   -0.33296074909793
O          -3.39994751043789    0.81357639928948    0.73504715608418
H          -3.73222039880492    1.29599295020309   -0.01389221803433
H          -0.77505114890998    1.31000599746728   -1.77045371860153
O          -0.46718260239417    0.75536908455224   -2.52195552879597
H          -1.09069834013693    0.01955441644496   -2.50935533644712
O           0.70298132439330   -1.48859978577058    1.98285862053271
H           0.65436296952485   -1.76890795815060    2.89787138254683
O           2.40689697851233    0.33166092200971    0.76086562518583
H           1.89680922686240    1.14179556523116    0.99383537822726
H           2.02034426913156   -0.36721206679886    1.31530425043808
O           0.62847866976605    2.21790165404951    1.38533161113271
H          -0.03990940732131    1.56739343772952    1.66700973427215
H          -0.03934528299514   -0.85094694558445    1.85333696870161
H           0.21009596179905    2.64917512210466    0.63265130189026
O           0.02459132427925   -2.41794465742983   -0.51437401593795
H          -0.78471322858669   -1.86483461362094   -0.56328223020364
H           1.05727794440684   -1.44749634852109   -1.22444247072564
H           0.29689172330444   -2.37733533889725    0.41704995697734
N           1.60740705454128   -0.59553392317571   -1.55635591737016
H           0.90024922526116    0.04494923167243   -2.01042044739118
H           2.34018931680011   -0.85288117188176   -2.20742716799181
H           2.01379828501318   -0.13991866217848   -0.67793752646561
