    26
        -50.47416772  Gyration_radius:  2.42048070144 Dipole_moment: 2.081
 S          -1.15380406859325   -0.78210470712276    1.43481209912322
O          -1.32844925769492    0.65856696907780    1.43423020732870
O           0.23935667033257   -1.17007602176529    1.57426102431366
O          -1.81616162698141   -1.41060586478968    0.30248538207043
O          -1.88240551338350   -1.34758276540373    2.72135003585985
H          -2.78267861151692   -1.41115368041042    2.42218656035132
H          -2.20949992107547   -0.17670584642235   -0.72976326390671
O          -2.32080458931421    0.72142040517786   -1.11456313784162
H          -2.39919486316863    1.27780102356682   -0.33054898615551
O           2.38126467936244    0.20530115305916    0.96079960702910
H           3.09313651948509   -0.06679202392312    1.54161169959069
O           1.85089716810221   -0.50123410488805   -1.67177257065224
H           2.27566568672614   -0.25562220758842   -0.83245876223460
H           1.38015693779881   -1.34363056695169   -1.47284270188056
O           0.45333815283567   -2.55464572011442   -0.70185453961352
H           1.58878532840245   -0.31313743112500    1.23953100609577
H           0.50235710685687   -2.22251570558326    0.21289507403139
H          -0.49042240287659   -2.53000772844886   -0.89252946099578
O           0.62417154216579    2.29983940311248    0.67421303403226
H           1.41419737860410    1.77478564057160    0.88304623753435
H           0.37316448873443    1.96359686467987   -0.85410848500903
H          -0.11998392679432    1.80307552452029    1.07743121275539
N           0.13869974489083    1.48029069087665   -1.77619202059526
H           0.23614727416982    2.10956833008830   -2.56461103829487
H          -0.85709210632345    1.14072206662739   -1.67880383383344
H           0.80915817928989    0.65084630322959   -1.85880437913983
