    26
        -50.47416395  Gyration_radius:  2.4204744542 Dipole_moment: 2.166
 S           1.90044324310283   -0.55874866085069    0.27584981029517
O           1.74417605930711    0.33639478394684   -0.85745804713439
O           1.08484665319093   -1.75357130605689    0.15599271801334
O           1.71267395236641    0.09904925141737    1.55918236493571
O           3.41507780675053   -1.01743083802764    0.24418717204553
H           3.54167448681327   -1.33924215573237    1.12985280845079
H           0.36579451734067   -0.59150284830537    2.22755534901516
O          -0.28213530364019    0.55696978961906   -2.50089196121945
H           0.04582582483110    0.85533874599129   -3.35027760687306
O          -0.41788980065151   -1.16893441991000    2.36881715893885
H          -0.17577241505982   -1.97256594452355    1.89375278825767
O          -1.52776816346563    1.98216701147251   -0.46953637618551
H          -0.70600915023493    2.32234147926065   -0.04561975864172
H          -1.23244001946790    1.63265669947668   -1.32739917695047
O           0.90678785500242    2.48492492476992    0.49552636160314
H           1.08837270581088    2.10683801807303    1.36244182230189
H           1.33441425317449    1.85624817215616   -0.11381531440319
H           0.51067694196763    0.46170475527580   -1.92067502493412
O          -1.14242691914809   -1.76282848040293   -1.30074935723152
H          -0.95126216570404   -1.07657180296717   -1.96090870456479
H          -0.29151226811264   -1.90440480175083   -0.83244038240984
H          -1.93496194340903   -0.96432813610715   -0.18413626466180
N          -2.21218796604598   -0.30630154895848    0.60880472991690
H          -1.99868387650681    0.68411532440763    0.26541488648636
H          -1.58707990722207   -0.55682324716730    1.42300170359689
H          -3.19063440105269   -0.40549475507167    0.85352828131581
