    26
        -50.43916268  Gyration_radius:  2.49163732109 Dipole_moment: 2.424
 S           0.58990464249981   -1.82518118972825   -0.30020759277827
O           1.37362851730963   -0.95572225053290   -1.12019450550945
O          -0.62696987009488   -1.31860073546192    0.25126279904951
O           1.45489619482752   -2.38548360103937    0.83190459658020
O           0.25338995701665   -3.10494650951590   -1.13898226052244
H           0.88957856750489   -3.17690515024291   -1.84758923156996
H           1.13095999359889   -1.97329547628535    1.71987397699596
O          -1.01058893142362    2.32055867643362   -1.35838750718548
H          -1.06831539634300    3.22852048892056   -1.65757712853818
O           0.64684668075172    1.32932116331851    2.09413948344228
H           0.65070667162275    2.01866347541491    2.76048667266327
O           0.47462582865416   -1.21871169071265    2.83394205707959
H           0.65727143384101   -0.26562890763761    2.64128203623086
H          -0.45870446187432   -1.34581532077109    2.63457469355896
O           1.47060857163739    1.73255332064271   -0.56927992788481
H           1.57658207105896    0.82249368600563   -0.88523368385811
H          -0.05618892635897    2.14773265173290   -1.17143266327554
H           1.38618725143435    1.66249567002823    0.39385307534818
O          -1.67242584510437    1.12041704863673    0.96118861019352
H          -1.61062796533622    1.63913200883284    0.13272531314140
H          -1.55142883748952    0.20200498523350    0.67884724116963
H          -0.27798354864104    1.32167279170420    1.69521438951560
N          -1.15293467768253   -0.59006673189832   -2.64914940266902
H          -1.48065800995772   -1.15929399841506   -1.87815705896119
H          -1.44674709193171    0.36225025202593   -2.45529068745546
H          -0.14161284952880   -0.58816465669503   -2.59781327477926
