    26
        -50.46760083  Gyration_radius:  2.41443101186 Dipole_moment: 4.167
 S           1.80041652300012   -0.02181695733397   -0.23130032592412
O           0.60994667477868    0.05171387084556   -1.04186091260384
O           1.47635932427527   -0.36326427409939    1.15707057037093
O           2.68076284701087    1.11562171312271   -0.33564675596614
O           2.62202474146103   -1.26785558126586   -0.78882328718641
H           3.51602079684605   -1.05261340901764   -0.54482812285840
H           1.60190504956307    2.37466116140718   -0.55424684847658
O           0.92972325218483    3.08443910952905   -0.47045757274028
H           1.41501924268885    3.88414062821525   -0.25674971808808
O          -0.59571814198040   -2.32307006707325   -1.44746414584215
H           0.06792843419197   -1.61108547465395   -1.42526548432698
O          -0.20770142296435    1.68688335669902    1.50126840080495
H           0.48709828369524    1.00125583976589    1.52234944967708
H           0.07416235678129    2.30776832932353    0.79395734365697
O          -0.49398492599954   -2.03171349163397    1.38620949624626
H          -0.66865125973689   -2.61134116962140   -0.53040943478294
H           0.29344858646721   -1.43355184500321    1.27241696051621
H          -0.35948694605677   -2.47998109958140    2.22260736804091
O          -1.99472774234684   -0.05916360338618   -1.89075762126623
H          -2.15424768900128    0.06304972020283   -0.34416972766482
H          -1.15886109860416    0.41992257041361   -1.97535283006515
H          -1.71919251796362   -0.99869878347697   -1.94937296970319
N          -2.10690634460458    0.06553181383044    0.72776673543247
H          -3.02070034181248    0.20455806888914    1.14364403224317
H          -1.41423547426675    0.82789015449922    1.03137394492754
H          -1.68040221760671   -0.83328060059138    1.02804146558801
