    26
        -50.45996626  Gyration_radius:  2.46179962252 Dipole_moment: 6.429
 S          -1.25823298409438    0.45966629279764    1.59537438069316
O          -1.88525042974120   -0.06719834676788    0.38393701317523
O          -0.51251776464998    1.67255038448134    1.34295526352540
O          -0.50387002158131   -0.56523489852984    2.29005724281641
O          -2.44825598760529    0.85918892646206    2.55695331890364
H          -2.74066953830069    0.00419099064612    2.85218766939920
H           0.97674711046180   -0.92438725424333    1.79020341030093
O           0.29787150573023    1.24731997248236   -2.25138953660864
H          -0.42260335425772    1.84865982115720   -1.93721018957788
O           1.89218442077120   -1.10429808079687    1.45362561465257
H           2.45480773084506   -1.12084108600685    2.22956911526032
O          -1.69275239971956    2.40011913745972   -0.93270252510111
H          -2.37143091340169    1.71908065700539   -0.90685706873768
H          -1.25999655366170    2.34160674247190   -0.05915516060030
O           1.74587348963603    1.21459139355125   -0.04630705782809
H           1.02592977713759    1.55791607726106    0.51356565023918
H           2.00712372480287    0.38160422279711    0.37692673667321
H           0.98879987199718    1.29785484857405   -1.54410450121940
O          -0.72965464603617   -0.92966281628728   -1.69839775421355
H           0.06912319023105   -1.56079421708981   -1.41568281774460
H          -1.22893158293481   -0.65950253223012   -0.85706890409597
H          -0.27578648391640    0.00625103576952   -2.04155546744419
N           1.25293770753566   -2.38770311538370   -1.01210371828271
H           2.02098025462680   -2.28536020980343   -1.66332350890187
H           1.04199404882478   -3.37235692881702   -0.91548008853945
H           1.55557982730913   -2.03326102695776   -0.10401712674516
