    26
        -50.45996583  Gyration_radius:  2.46193838695 Dipole_moment: 6.419
 S          -0.99572392568878    1.44004250496114    1.13071240317593
O          -1.67220405405085    0.94133124665597   -0.06577505139602
O           0.29224498767223    2.02367098241506    0.82797356537767
O          -0.96006408036793    0.43684713933875    2.17685438265789
O          -1.90064836291048    2.61527069230180    1.67903351925218
H          -2.61477809721333    2.12829747689141    2.07470346953449
H           0.15893068350290   -0.71022238467650    2.12044075172034
O           0.87633673790469   -1.39160165969168    2.05174568412112
H           1.26553540063694   -1.44707692230718    2.92601827839300
O           1.13133839649749    0.24759994214025   -2.32091151540261
H           0.79740967094128    1.17919649543197   -2.30837459855270
O          -0.09972060937444    2.52761831926243   -1.75898121504066
H           0.14776727061780    2.52745403039786   -0.81425699300789
H          -1.03120699905114    2.28796687684912   -1.75974352356720
O          -0.92305720369466   -0.92347555733374   -1.60770658992267
H          -1.29398044494257   -0.22011174234093   -0.97720680104417
H          -0.01901874793817   -0.45612341305056   -2.01249010567524
H          -0.59884721618758   -1.74346611787982   -1.02573775518987
O           2.10965698470306    0.16808223852493    0.12848195313917
H           1.62001480735628    0.95744952542584    0.42332359344859
H           1.85609753081319   -0.52480545664708    0.75830460801500
H           1.67010231371131    0.16639699355879   -1.49450051150014
N          -0.06005446894168   -2.87225418047361   -0.19876599865139
H          -0.75371338906406   -3.57188597799076    0.03027941501742
H           0.27754449242778   -2.45697858019159    0.67034271239359
H           0.72003832263518   -3.32922247157556   -0.65376367728914
