    26
        -50.45996622  Gyration_radius:  2.46167411584 Dipole_moment: 6.433
 S           0.63558399475898   -1.32000606038928    1.47987485920460
O           1.64650916901158   -0.43998037408705    0.89536905964025
O          -0.00830743368784   -2.15029097253272    0.48647603383585
O          -0.28579605910292   -0.58269357647990    2.32208558541450
O           1.42187467267972   -2.30043397478172    2.43971737579805
H           1.61868677988695   -1.72375225535968    3.16928612061568
H          -1.50256312461039    0.21120206164768    1.64444909717664
O          -2.24642218478889    0.67735949852542    1.18281011599976
H          -3.03774543673843    0.45393424054442    1.67552675286266
O           0.44977221705685   -0.07257780049704   -2.55114891715843
H           1.00896461617063   -0.86702334542355   -2.36249177123181
O           1.85351929813029   -2.01407157015906   -1.41522150429691
H           2.49944516560775   -1.54386360638593   -0.87974203459176
H           1.15324083892597   -2.26483755769730   -0.78240727438406
O          -1.65568590721223   -0.74688485877196   -1.11239330954249
H          -1.17441142539180   -1.41983189140253   -0.59745463997313
H          -2.02509408238691   -0.14771435311244   -0.44471322505035
H          -0.44017822222926   -0.30294209825364   -2.18326842698620
O           1.27917900580403    1.42923541198407   -0.77442460014748
H           0.94594541407260    0.83144889438438   -1.62992894305491
H           0.44725792288167    2.00567788853584   -0.47111558601301
H           1.45997978019675    0.73737089164269   -0.05436845284604
N          -0.78218957641797    2.77134467971598   -0.08363257862299
H          -0.59151805374727    3.55773469591567    0.52335090256028
H          -1.38285304247792    2.11607080891972    0.41795753075991
H          -1.28719432638713    3.10552524352496   -0.89459219994973
