    26
        -50.45996622  Gyration_radius:  2.46163282736 Dipole_moment: 6.431
 S          -0.45000397011034   -1.89221983756349    0.74477978971370
O          -0.85514313475594   -1.92655785863476   -0.64285660078755
O          -1.00900281388411   -0.74392319760814    1.45704704541658
O           0.98221634730815   -1.99445014361062    0.94577096366515
O          -1.08351362653569   -3.17075368777132    1.42631072176707
H          -0.60210253018847   -3.20084552318805    2.24552547363370
H           1.95990265187655   -1.08089098469675    0.06308319401549
O           2.52686911752306   -0.50609222501380   -0.51310984489118
H           3.22028215779199   -1.07762425092148   -0.84688638115324
O          -1.54040559263662    1.66756120427331   -1.25466408528447
H          -2.26229194025576    1.00715332649413   -1.10631945833254
O          -3.02078425421723   -0.38492169736910   -0.46199578753045
H          -3.00658205373996   -0.31753776278295    0.49734760196686
H          -2.34506514598720   -1.05992320995666   -0.66574063668162
O          -0.56830368945632    1.71109640269600    1.01578649725526
H          -1.02128229887774    1.79099344285120    0.02223841637319
H          -0.71767090458523    0.74001701636700    1.27016980267059
H           0.47008628656435    1.85624587588761    0.88268786607654
O           0.32194661582559    0.00230022578525   -2.10346543028176
H          -0.83707446186379    1.16246733566317   -1.73446802160095
H           1.20150045900173   -0.02795627171003   -1.69527793333086
H          -0.13308710479690   -0.78877566857110   -1.76177975635252
N           1.93227516847494    2.04467958579670    0.61371365590416
H           2.46960820616971    2.25627651196383    1.44419789835260
H           2.09754829194505    2.77181546039322   -0.07058241329053
H           2.27007822940754    1.16186593123854    0.22848742270044
