    26
        -50.47392010  Gyration_radius:  2.43990913809 Dipole_moment: 2.190
 S          -1.66336011566930    0.32585897226342   -0.92974857659371
O          -1.24125241249550    1.31148010122942    0.05661006467488
O          -1.32285530362753   -1.02100372058851   -0.49789568282947
O          -1.22277455762878    0.64698303632651   -2.26737252533768
O          -3.24456044193481    0.37734595622720   -0.97001227109969
H          -3.37498556747462    1.03908030927720   -1.63928844233495
H           0.40127103840908    0.65617496511329   -2.46780011240774
O           1.38612187719630    0.61351402361079   -2.50532013889891
H           1.63380188799814    0.87425688815944   -3.39356741608653
O           2.06904703681440   -1.06642099336797    1.12963922046579
H           0.70068238555092   -1.23680650818307    1.73009528103313
O          -0.89447847481737    1.29876507873065    2.68363002673940
H          -0.09298687181026    1.81913682361070    2.78122201249256
H          -1.17668840010997    1.43231929766262    1.75428781975932
O           1.18817246866537   -1.85638145841156   -1.25281918234858
H           1.93581981658792   -1.52296276578886    0.26536955970502
H           0.23996653498296   -1.72347149928460   -1.09078288331526
H           1.45320326887528   -1.10869683336734   -1.81148506584838
O           1.45547864316255    1.35825358734490    0.17662998675850
H           2.03598404713471   -0.11152518611571    0.89419601666698
H           1.71026924115249    1.24998738855024   -0.75099809909040
H           0.48326658065619    1.42465851680020    0.15483979808671
N          -0.36623339375852   -1.22372543160659    1.96319584007666
H          -0.85296316789823   -1.21651638370083    1.03184150613242
H          -0.59132718824904   -0.31635353889440    2.43853920217854
H          -0.64861892172610   -2.02395064557304    2.51699405139016
