    26
        -50.44218274  Gyration_radius:  2.62690361894 Dipole_moment: 1.568
 S           2.52189246184322   -0.41374640999572    0.65331816071399
O           1.72381440365443   -1.49193412188598    0.16308844536853
O           2.15890735426476    0.16717581962044    1.90579175116775
O           2.64637254643571    0.67608338280355   -0.40440169439875
O           3.99727635101968   -0.95522358360687    0.79499800229876
H           4.45991442861529   -0.34860501638920    1.36892221058723
H           2.28355035209371    0.29730631073913   -1.31710547109017
O          -1.96837545426988   -0.29531160644375    1.88094450705510
H          -1.78334332243204   -0.50449756469632    2.79710468958076
O          -0.68581856314962    0.35953405325529   -1.43682257324431
H          -1.56815023969911    0.79183215524547   -1.42373692917905
O           1.61655915159961   -0.38553144220331   -2.40230107783370
H           1.57054628927930   -1.27827639738536   -2.03799087402236
H           0.70917238868754   -0.01160993693800   -2.27957371133315
O          -1.01033199354092   -1.91629244748707   -0.11403490827424
H          -1.44584487301239   -1.49462378579928    0.65166818298615
H          -0.86427240085347   -0.53389000335358   -1.05140551230652
H          -0.07604133337580   -2.00677457813985    0.11594860829952
O          -0.13503687089458    1.42700586001970    1.03043799859223
H          -0.17927420024348    1.18376107644867    0.08486050179606
H          -1.33606519618105    0.42431313785367    1.63190441352787
H           0.70471788947252    1.10114746533361    1.38061727986602
N          -3.12912034269151    1.24455063302662   -0.67026707724204
H          -3.11453728839275    0.64188884498395    0.14666993360746
H          -4.02237311819706    1.12207711123246   -1.13021926955458
H          -3.07413845005342    2.19964103375882   -0.33841557696717
