    26
        -50.45028656  Gyration_radius:  2.64263513528 Dipole_moment: 5.335
 S          -0.14218852206912   -1.46311170184090   -0.56719222113223
O          -1.59728474456127   -1.03201130735763   -0.35772725898998
O           0.57985625252188   -1.49199974187724    0.66385940129038
O           0.44120612603070   -0.61386694360981   -1.58875096733122
O          -0.29213219953886   -2.88616020590934   -1.11887211541416
H          -0.77659365254719   -2.74168784217115   -2.00567060436047
H           0.79059720057378    0.92019150904523   -1.07882457404181
O           0.81786953741607    1.85130352131578   -0.76139168266492
H           1.20963846138449    2.36993076756348   -1.46611869125131
O          -0.81539845063934    1.48224234022217    2.83602489314344
H          -1.08150995579288    2.24981886174155    3.34431633948131
O           2.66934330186769   -0.55256409942047    2.09346731107021
H           2.53906115893273   -0.95974375317405    2.95197561676216
H           1.98222669793829   -0.93310914104078    1.51779077107345
O           1.61733959401935    1.93362350111310    1.93947945928518
H           2.12051915858744    1.10074395607047    2.04986931467443
H           1.44754415457411    1.99997729504906    0.98845216029416
H           0.13665569949080    1.63166580921268    2.58973961574778
O          -1.64246509643355    1.35609058190276    0.34819775086789
H          -1.67008560681077   -0.02417815707464   -0.03637252449577
H          -1.44776545952900    1.35595871830371    1.32481845567983
H          -0.83972623755170    1.71723306853415   -0.06929677497250
N          -1.43353504183414   -2.00233172180309   -3.23938544882214
H          -2.37387329026385   -1.71261504000740   -3.00529659751448
H          -1.41997936595712   -2.35814253212355   -4.18599251670774
H          -0.81931970976892   -1.19725773261280   -3.16709909171848
