    26
        -50.45841214  Gyration_radius:  2.4722095492 Dipole_moment: 4.864
 S           0.06280423726046   -0.87593170654643   -0.62893548105102
O          -1.00838052409502   -1.71359235559602   -1.10206131442121
O           0.56777589843721   -1.26963711513177    0.68676258297463
O          -0.28083146875702    0.54988030504352   -0.64551424979204
O           1.29363676253660   -1.00504425422418   -1.59584056618491
H           0.87676778505540   -0.90422779215859   -2.50253918606799
H           1.11973911797203    1.34895128846559   -0.56607158170343
O           0.02016267309294    1.64147396884603    3.04632124146562
H           0.05015537451197    2.59731280677655    2.97206665336232
O           2.06019299667523    1.60862554560309   -0.38257983808977
H           2.58859812913859    1.07063010748201   -0.97831424245042
O          -2.15076786518506   -1.75626285887956    1.36134388394835
H          -1.93789335911612   -1.84941130119747    0.41729250770097
H          -1.36638008650927   -2.06938507050102    1.82003696060637
O          -1.88015129472864    0.93104972237391    1.46983513600022
H          -1.40170466853424    0.92168495346617    0.61986511072497
H          -2.17621651847217    0.00547236576934    1.58925445904904
H          -0.78404461564735    1.34477732264947    2.50801197423004
O           1.89278400194111    0.45476636871519    1.87450502777908
H           2.09980339839451    1.03009200295453    1.05084721407965
H           1.15427092148748    0.96320786641214    2.43315102223950
H           1.37827277233396   -0.35713377458907    1.44452564773807
N          -0.29692235934019   -0.68080909153647   -3.62503035571122
H          -0.58651745439626    0.28254466267556   -3.73506379502954
H          -0.96033651377805   -1.13640323881832   -3.00202833301528
H          -0.33481735027225   -1.13263071804481   -4.52984045838231
