    26
        -50.45538175  Gyration_radius:  2.56581309248 Dipole_moment: 4.091
 S           0.57356915824811    0.69701588575706   -0.53530662183471
O          -0.71309285977669   -0.02035248653333   -0.35605059597483
O           0.94040491642275    1.33666257125287    0.72593996183880
O           1.58666456018537   -0.18699643901383   -1.05755657636847
O           0.30084283376469    1.83506583784361   -1.54304733554336
O           0.05283893833277   -1.76102172801310    2.91128525259494
H           0.29815063500086   -1.57502669673374    3.81990791194508
O          -0.74743698590437    2.07969632398820    2.53961671898011
H          -1.19423331233086    2.87367632966329    2.24038170233816
H          -0.01168534945358    1.91586296586232    1.89371012196068
O           0.91198688640255    0.44408632815146   -3.58240807937623
H           0.10733836703231   -0.13086909998657   -3.60606510345734
H           0.50839350541979    1.43269890718950   -2.44782443918927
H           1.51432557765635   -0.00404724889387   -2.96941142458362
O           2.08788669779142   -0.91860394486660    1.50694069842921
H           1.86132623586702    0.02684648887342    1.44691538328083
H           0.85831749235106   -1.55522576034003    2.36021400820566
H           2.16712427452855   -1.16847194038860    0.57647407295024
O          -1.67180202719215   -0.20153100557097    1.89967029761727
H          -1.42322531227100    0.71758854518271    2.27534080510469
H          -1.31118340233619   -0.15078387998888    0.88465626172250
H          -1.04284274392115   -0.88725633562337    2.35255192800355
N          -1.22638774446681   -1.07807467668867   -2.99607491075462
H          -1.13169501607087   -0.78263318506358   -2.02480265025169
H          -1.12896625021202   -2.08538645061269   -3.01936694048052
H          -2.16661910508532   -0.85291928543369   -3.29569045709051
