    26
        -50.45488106  Gyration_radius:  2.4742559318 Dipole_moment: 0.414
 S           0.32328462507643   -1.25894936678207   -0.48718311106714
O          -0.74193903660330   -2.22974424780978   -0.95934968790437
O           1.57421269377249   -2.12499354090208   -0.43640654214400
O           0.49657860781321   -0.19958079247522   -1.45981666289952
O          -0.00266679088987   -0.76730839095979    0.82936386515829
O          -2.44171800613544   -0.97581489945992    1.90830544172185
H          -2.47872807432561   -1.80104680250294    2.39479817784182
H          -1.50580113495324   -0.84450264061761    1.65913045330410
O          -1.66818244152240    1.32417738362760   -1.39119105014070
H          -1.81933290739154    1.67730687082245   -2.27027316861785
H          -0.80852459807240    0.85418730549789   -1.42775802586916
O           2.39096066406274    1.51447466979063   -0.53439680542472
H           1.78982665214895    1.01960395584193   -1.11370993450169
H           1.78127328641535    1.93817533308408    0.11756143034828
O          -2.86986061906676   -0.97233356723895   -0.71468914507968
H          -2.60144003419019   -0.06042588602524   -0.97015937208835
H          -1.69696544329266   -1.75164851147085   -0.90697516493385
H          -2.94881131404250   -0.95604237950092    0.26756576858038
O           3.35968978116907   -0.63100672000814    0.50722547226287
H           2.32802196011114   -1.56283068450310   -0.00332598224850
H           4.20207701198999   -0.80221081522538    0.07910790588258
H           3.05277198737174    0.27450713475386    0.17645890369658
N           0.31680332998798    2.14042158108605    1.06339416698038
H          -0.46394540449244    2.45232335937426    0.49717307673318
H           0.24848279604084    2.60031317539874    1.96243979985532
H           0.18393242902429    1.14294847619891    1.21271020055296
