    26
        -50.45300247  Gyration_radius:  2.54638069847 Dipole_moment: 3.560
 S          -0.90959884666157   -1.15977315494185   -0.60136316700352
O          -1.46174364716293   -0.88748438640244    0.72409645247833
O           0.25554583175277   -2.02434581574874   -0.53771137211770
O          -0.61099788138069    0.08509523879055   -1.31062855156730
O          -2.03228400123561   -1.88817190968464   -1.39540622458842
H          -1.58999399170250   -2.06599721197377   -2.26379985768359
H          -0.52547012435528    1.49347529542879   -0.71824530958558
O          -0.51846928217229    2.39318336974244   -0.26367686087138
H          -0.99260771605701    2.98930469530041   -0.84520172109298
O           0.67062452645750    0.95144118919972    3.05178668218543
H           0.91093867936640    0.07170401207848    2.70531057825596
O           1.69101824254207   -0.85828662069383    1.29554950370202
H           2.36109828185514   -1.50372147744910    1.52798334976652
H           1.12508532085635   -1.29949151865841    0.61768275830151
O           1.97213614816831    1.95205379954343    0.98112536711905
H           2.09414445307276    1.01298277999258    0.77905046174301
H           1.25339657436769    2.25911425199557    0.41188774946291
H           1.24651775010133    1.55288956082281    2.52084994482304
O          -1.48695532558539    1.30795072176175    1.85742512814458
H          -1.58425402598015    0.35959129774759    1.40562760529678
H          -0.62019486776518    1.18404457896130    2.48076710023376
H          -1.18090144225842    1.89224018505688    1.09183720096846
N          -0.27145941024847   -2.01850546299328   -3.32381640899040
H          -0.15978619087052   -1.02015737514612   -3.45213088068172
H           0.01358080452918   -2.49200297837299   -4.17207950202831
H           0.35063013036961   -2.28713307426946   -2.56692000624940
