    26
        -50.46742656  Gyration_radius:  2.40205515847 Dipole_moment: 4.782
 S           0.00119996234330    0.30162123617962   -1.69493587939292
O          -1.15807632368835    0.48584819578038   -0.82204014597544
O           0.99396764256986   -0.65122702939565   -0.92601693817454
O           0.67817540946922    1.54541296430485   -1.97031229096482
O          -0.34410674839888   -0.49644258764463   -2.86878976513533
H          -0.46245945379256   -1.79953157482208   -2.27116576843925
H           0.93295546552116    2.41940770958627   -0.64293693323652
O           1.14818104871287    2.86499688584814    0.21865617334055
H           1.68877250535020    3.62291235935614   -0.00910995364876
O          -0.20828515182218   -0.32205062645067    2.54600913446974
H          -0.42611312671468   -0.36356046254179    3.47772646737205
O          -1.49361744881297   -1.71742735972363    0.50061306909699
H          -1.55236273025197   -0.85279938570323    0.02527310427368
H          -0.95946419618645   -1.50436399550958    1.28462507653369
O           2.00980560750349    0.46459599786432    1.14396317401072
H           1.34764368225742    0.14877619178287    1.78530708341239
H           1.45034865052157   -0.19562726789952   -0.14920501369337
H           1.80644085997468    1.40346282658844    0.96745485824499
O          -1.13351182633974    1.86771708636535    1.44572956817822
H          -0.40060427089892    2.46796212767355    1.24761082350082
H          -1.33139312648020    1.45031663456410    0.58290397033613
H          -0.62998012429829    0.51453266081613    2.19832445105384
N          -0.48785621227564   -2.73193040841907   -1.67573404228628
H           0.47327596089605   -3.04191909567672   -1.56345037902101
H          -1.06099040678376   -3.44485121971858   -2.11604514509771
H          -0.88194564836907   -2.43583184257416   -0.71445467865945
