    26
        -50.45582920  Gyration_radius:  2.54048092754 Dipole_moment: 3.474
 S          -0.68108086577878   -0.02661000216882   -0.62575505358401
O          -1.63641879186647   -0.68335173790451    0.23945591930275
O           0.69734385665755   -0.50560146364256   -0.33979430471037
O          -0.72199668719541    1.43090073485859   -0.52563963914476
O          -0.96979901355279   -0.36891895080487   -2.09153966890029
H          -1.04198238317648   -1.41515925717629   -2.17154991696956
H           0.45131854075620    2.51888351369955   -0.77938815860981
O           1.31984633772338    2.99305575369127   -0.84295984130725
H           1.53424317405301    3.03413708797535   -1.77650927317731
O           1.16421726148611    1.55134685119630    2.83214916824715
H           1.23619155924777    2.44968346530126    3.16051336719881
O          -0.30771060543951   -2.97595178511124    0.48031193008642
H          -0.93137242708606   -2.22974326641502    0.56829541931946
H           0.55129276427087   -2.54592034661228    0.41952312375591
O           2.28120793767916    1.10969159612469    0.59007666291608
H           1.61295618273702    0.34257081601934    0.16962317807237
H           2.05305142327891    1.93567329238170    0.04023086773164
H           1.91176092761567    1.27521118982668    1.53739734319462
O          -1.31770294547471    1.31877743818113    2.05013247544588
H           0.19808823923331    1.40869641403518    2.62867558756354
H          -1.21834992276598    1.62623515892010    1.12993572739680
H          -1.66408250066489    0.42474121381043    1.93164799217032
N          -1.11857820693494   -2.90933270628883   -2.18909333142720
H          -0.52023949901459   -3.35857372134716   -2.86892428592646
H          -2.06779143737783   -3.22993366526949   -2.32399501027694
H          -0.81441293840886   -3.17050762335847   -1.24282028851824
