    26
        -50.44601935  Gyration_radius:  2.51055664954 Dipole_moment: 7.318
 S          -0.66510182974473   -0.85918707235668   -0.88499690628364
O          -0.04412975622916   -1.52379654044629    0.24624925541718
O           0.29492987047594   -0.01306120551525   -1.61088894116327
O          -1.81492781364088   -0.06454966722663   -0.45110749911787
O          -1.15791524714239   -1.91358145217494   -1.89830343202759
H          -1.73877047283130   -2.49232451639245   -1.32611468848970
H          -1.53617291236948    1.22311055282352    0.30744339738269
O           2.55959871698590    1.52734933532250    0.85800637315275
H           3.03710110885938    2.08921858821596    1.46979989589389
O          -1.24484206993906    2.08519317103080    0.75213531087759
H          -1.98849500524985    2.68550977106726    0.67210421772813
O           3.12357344734766   -0.16702481322914   -1.51870451636942
H           2.18637952540510   -0.30752490999144   -1.70099075041801
H           3.16899857436689    0.23658627022318   -0.64703892642542
O           0.77478686474750    2.26007682109376   -0.79598426451975
H           0.58272889350326    1.30965250523563   -1.26338560613525
H          -0.02231795132167    2.35262689125008   -0.16239885061010
H           1.59311929975287    2.07046965163309   -0.20443791014628
O           0.61827247209487    0.28739894979191    2.03628394954817
H           0.41989983570183   -0.47894015842308    1.44941200195496
H           1.91237498290721    0.98113337163916    1.39475172694984
H          -0.14284854841760    0.87507938420086    1.97035311502593
N          -2.43212168985917   -3.03024824738468    0.06853608951929
H          -1.60055825869393   -2.77658016250383    0.59480170943489
H          -2.71349778956316   -3.96926643630081    0.31965323345091
H          -3.17006422710998   -2.38732008158537    0.32482201538455
