    26
        -50.45582957  Gyration_radius:  2.54112244544 Dipole_moment: 3.459
 S           0.18329335162917    0.07137977616214    0.90157137360936
O           0.33663478106089    0.76297228973913   -0.40588112609871
O           1.03547360063198   -1.09588406773498    0.96129566142106
O          -1.22758654002918   -0.23461345133265    1.12915085749976
O           0.58801488655659    1.07984776575490    1.98250247399424
H           1.62483117174823    1.23945684735640    1.90538920523183
H          -2.55208279215127    0.53315789085981    0.59806062115761
O          -3.21013188688805    1.05128103185508    0.06732868631207
H          -3.29398311781938    1.90181649877275    0.50179825434351
O          -1.79300739754235   -1.69570352398585   -2.39010374508601
H          -2.68691845513602   -2.02922278258813   -2.48825269700524
O           2.96758418879641   -0.14362440264882   -0.60082817792870
H           2.35506215128741    0.37321970411786   -1.13391570325891
H           2.38102714024282   -0.70055069335960   -0.05372731217630
O          -1.60016080555885    0.79274791771176   -1.89912613408190
H          -0.69930330596322    0.81377665282365   -1.26654788370392
H          -1.68372870822724   -0.19251827567115   -2.18795937357888
H          -2.35022707667501    0.96458105919436   -1.23252005124253
O          -0.99650628980317   -2.58411994689414   -0.06569943342066
H          -1.43286362485386   -2.11261632458597   -1.55861849559879
H          -0.04662604074445   -2.58543736777898    0.10945822412925
H          -1.31023848321675   -1.85002016894428    0.49459669851029
N           3.09908952702999    1.40810412388842    1.71476968743187
H           3.62058126838947    0.96357766874051    2.45806863756489
H           3.41103060936805    2.36513327874822    1.62098925359441
H           3.28074184788255    0.90325849979507    0.83820049842636
