    26
        -50.47250301  Gyration_radius:  2.48719586579 Dipole_moment: 2.885
 S           1.60333569635573    1.00400450791549    1.25118122000856
O           0.20867236416049    0.72038468236283    1.53083253915665
O           1.76239088600718    1.84728886923252    0.07255615436593
O           2.43313476072540   -0.18375625830234    1.18644845632120
O           2.13653041266827    1.84786171787190    2.48140569348585
H           3.07017866779058    1.86316754515123    2.30122967475648
H           1.89611860637157   -1.24573208165486    0.12641032400448
O          -2.43983357516210   -1.23920950573148   -0.32325162280548
H          -3.19166707421121   -1.82376583653044   -0.22550455608059
O           1.51290294138869   -1.92233993737431   -0.49125296791574
H           2.24881518233436   -2.46694124510305   -0.77455575562901
O          -2.12891636173661    1.40984320845098    0.37066688974945
H          -1.40870755363301    1.26781134282532    1.01256161871220
H          -2.44634651115370    0.51469677367232    0.15128067700460
O          -0.40531765044783   -0.90077881024813   -2.14891850848841
H           0.32232431942052   -1.30958700681512   -1.64308427804578
H          -1.21540837257074   -1.11465813771740   -1.65181964996440
H          -0.29316899094093    0.67149527683327   -1.89891408995225
O          -0.55451220741995   -1.83518641141415    1.37250567641351
H           0.15934092089175   -2.17255483602707    0.81176916846810
H          -0.27025180776406   -0.92974377237619    1.61017673701028
H          -1.77298005225869   -1.51700059932175    0.36998608808289
N          -0.30458074320540    1.65789106382469   -1.50452848949031
H           0.56730618825597    1.78994852613492   -0.91420625228127
H          -1.13156503783224    1.71069370689832   -0.83605000615169
H          -0.35779502803202    2.35616721743917   -2.23692472073788
