    26
        -50.45538180  Gyration_radius:  2.56575698493 Dipole_moment: 4.088
 S           0.98765554641099   -0.13223914226915    0.32855869190236
O           1.56296379819233   -0.69254910499971   -0.86951922540630
O           1.68147992874154   -0.72980060257754    1.57230696684611
O           1.12916414353035    1.31837020207094    0.42977292928027
O          -0.44920011613652   -0.48580791477974    0.44087857784984
O          -1.86376498820148    2.08777042540678   -1.93770448162192
H          -1.90756676011815    3.03616005662195   -2.07571029699591
O          -0.51878638603541    2.86776772692141    1.68385893230775
H           0.22399336080069    2.37866425798272    1.24277812894090
H          -0.38393568408496    2.76434705520085    2.62762197562856
O          -2.12137409413785    1.31510537944461    0.46367734468477
H          -2.11434806130910    1.63482213244936   -0.52049056060483
H          -1.44024650560445    0.47912365309119    0.46861916543435
H          -1.61737958791569    2.02219129590902    1.00561607089316
O           0.67483174487779    1.51752512373581   -2.17140324389024
H           0.97103874676973    1.73227201846841   -1.26860252328268
H           0.95661771010338    0.59762926901623   -2.26504046409362
H          -0.92250250862643    1.82325437917010   -2.13438700294250
O           2.24367168479318   -2.93788931625388    0.44300667651903
H           1.98322853390457   -1.65057116508255    1.28102043770834
H           1.33382743846537   -3.32608671545248    0.43387733141608
H           2.28715621782325   -2.39835431135527   -0.36100666396857
N          -0.40746374769567   -3.37280588203605    0.31578554899030
H          -0.80526813433586   -3.71453996917318   -0.55007198674708
H          -0.54309649826380   -2.36251074478810    0.33855055939662
H          -0.94069580193506   -3.77184810672032    1.07800712170931
