    26
        -50.45538183  Gyration_radius:  2.56576747235 Dipole_moment: 4.089
 S           1.04849615671914    0.00600207486883    0.04472977093909
O           1.06289031223871    1.15041447042967   -0.86336595597031
O          -0.25514666226157   -0.03165679617282    0.75275135613697
O           1.31946006704644   -1.25488489478755   -0.60110547273548
O           2.12052421157038    0.28478531354588    1.12098000255244
O          -2.53534377696025    0.52152312749703   -2.21054137871934
H          -2.71375139236209    1.15217415495227   -2.91113763076406
O          -0.31933101589148    3.30953833379546   -0.52185251890956
H           0.08367586362790    3.82788971922294    0.17705289847011
H           0.31682416173691    2.57455362087108   -0.72340760226119
O          -2.03062355549982    1.52187006980725    0.06421813981748
H          -2.33182511982934    1.12483519489869   -0.84270390565620
H          -1.29284877111630    0.82095738856909    0.42107937568534
H          -1.47074021901888    2.35157307564144   -0.14990705962731
O          -0.11831848879437   -0.33393386574166   -2.71107700227941
H           0.39465234079259    0.38065661119275   -2.29262828555949
H           0.21900728477312   -1.11881822509854   -2.25878331309688
H          -1.66442116600039    0.09307914215446   -2.43977533446697
O           2.56708344023736   -2.17318871466948    1.59610978346625
H           2.42136123842363   -0.63128718256799    1.42770534710484
H           1.73601046978194   -2.37280357954862    2.09419436471489
H           2.32785157465666   -2.29147676535557    0.66432523544536
N           0.04576614424665   -2.29476204485517    2.52471317870392
H          -0.18098326933928   -1.50316140545714    1.92342071585675
H          -0.20868242857667   -2.04418025480475    3.47183522725581
H          -0.54158739017984   -3.06969853838773    2.24317004391721
