    26
        -50.45054783  Gyration_radius:  2.51902193476 Dipole_moment: 7.495
 S           0.28803731040344   -0.28615345526552   -1.33127938485217
O           0.86203147627997   -1.18804913309016   -0.23170789755118
O           0.54092325954118    1.09581986719977   -1.05993431494113
O          -1.11732519801161   -0.60996660577950   -1.48332012513629
O           1.05297751292018   -0.73212235808061   -2.57242081422134
H           0.78336390580136   -1.72039716398564   -2.67560657854519
H          -2.00444881412249    0.07431992801884   -0.26274087255462
O           0.76594549079983    1.78425411683236    2.61553862281983
H           0.79434259382417    2.33872278866131    3.39565064716783
O          -2.40904046083691    0.42182634551446    0.56468964500378
H          -3.33750900558728    0.18385312697892    0.53648286077505
O           2.79869011793565    1.21015976502197    0.64914920827367
H           2.16189301689646    1.23396732787783   -0.07349825466967
H           2.29144530477310    1.40111540057905    1.44759885295798
O          -0.79609929432697    2.71345679933652    0.69965256002407
H          -1.55495551333422    2.11329269839614    0.72808812401473
H           0.21156096189511    2.25741158554945    1.94263197251139
H          -0.26133756762662    2.39642549141137   -0.04533275611360
O          -0.26121509666278   -0.59350807845726    1.93462943863997
H           0.45991062696109   -0.97681986000897    0.70796215078739
H           0.21549617214458    0.18241500018441    2.30157716327023
H          -1.11851019360341   -0.25205808299442    1.62018921125861
N           0.06036010339981   -3.07847896404812   -2.44133562221259
H           0.50779646396162   -3.55245963974103   -1.66788135613222
H          -0.12253078627875   -3.74173140089222   -3.18261885606439
H          -0.81180237712401   -2.67529549920718   -2.11616362451972
