    26
        -50.45054798  Gyration_radius:  2.51928693551 Dipole_moment: 7.503
 S           0.45854396136814   -0.27566160319292   -1.28459953191662
O           0.32391361997329   -1.48947677489313   -0.53896657219801
O           1.15585341045330    0.81435036620931   -0.46157013138911
O          -0.79920352728896    0.26464183679633   -1.76343300648267
O           1.40912268225121   -0.47684477066636   -2.45956002067194
H           1.41212710503164    0.44240302257968   -2.92305318846666
H          -1.92670009948779    0.26889818892142   -0.54991206252438
O          -2.47200725098693    0.33482596668536    0.26713404498274
H          -3.30347556403761    0.73726498889115    0.00975265146514
O           0.06634270408149   -0.85552581094639    3.14383939379897
H          -0.11743049738320   -1.08347487371822    4.05554747319623
O           2.33055734068207   -1.46701410883642    1.46210073384512
H           1.76895354144850   -1.60969140623599    0.69231026200485
H           1.72891121714300   -1.24947816828431    2.18455921807525
O          -0.25059478919408    1.28477064712321    1.56548920816494
H          -1.13930793211157    1.04719843743407    1.24284959164682
H          -0.02193838592325    0.60684073400090    2.23793618024837
H           0.64014939061965    1.04262464142566    0.41663600038377
O          -1.52343109760897   -2.04737483613060    1.40435899476965
H          -2.10003022507254   -1.32773838388068    1.11004661353196
H          -0.86657678473935   -2.13958827826507    0.69617477026859
H          -0.53549645669208   -1.40645316280557    2.57962263769756
N           1.04666189808454    1.91496759505993   -3.26953636514576
H           1.53782789452293    2.52802187522157   -2.63239346546437
H           0.07704729468603    1.85084624477153   -2.97837011814035
H           1.10018054965064    2.29066762263490   -4.20696330124529
