    26
        -50.46691588  Gyration_radius:  2.4575556916 Dipole_moment: 2.729
 S          -0.70839196158811   -1.62499118521007   -0.78346634981489
O          -0.31427139899303   -0.51742454489445   -1.63310921897108
O          -2.11963898637654   -1.88754587986927   -0.74592119277412
O          -0.07011613350489   -1.54422477816540    0.52808642943013
O          -0.04135382637626   -2.93172839011980   -1.44769844498926
H          -0.78120592589085   -3.36027429908054   -1.86661530130525
H          -0.44161270695469   -0.51002248882951    1.73488637310272
O          -0.69586953920124    0.17530299689060    2.39521350790070
H          -0.63965861952522   -0.24322248957773    3.25529584137600
O          -0.91945402189636    2.70836427730350   -0.63231676201601
H          -1.55214685548453    3.42161408765486   -0.72480252632844
O           2.45494904122203   -1.84058654913617   -0.15680946472555
H           2.41104734791490   -2.47325377831941   -0.87670345223211
H           1.55378943066108   -1.84177286742237    0.23092922207863
O           0.86398096835522    2.12716189791269    1.26848799761274
H           0.20745621219755    2.54478143417609    0.67097855774812
H           0.34636368420512    1.50456912258179    1.81130483907846
H           1.52028499145409    1.28025611406769    0.14141010458325
O          -2.41719284632670    0.64052369052554    0.18576785701041
H          -1.45582678522915    1.89666634516246   -0.49019345368746
H          -2.43569292931450   -0.24439856444440   -0.21115821900679
H          -2.07853666233540    0.53416188209449    1.08480127947561
N           1.79391479961979    0.70730738049138   -0.72548127362655
H           0.89487744123388    0.33391231777203   -1.15327298432860
H           2.33496173161944   -0.14318228507152   -0.46672143971620
H           2.28934354050853    1.28800658354572   -1.39289192584849
