    26
        -50.46691587  Gyration_radius:  2.45754342825 Dipole_moment: 2.732
 S          -1.82497055736998    0.28065762184597    0.58926638804377
O          -2.48043078112778    1.53220460381168    0.33235220919074
O          -0.73387100697169    0.34557973809905    1.54270293773789
O          -1.44237590106217   -0.46209371850883   -0.60902160238109
O          -2.93773694072298   -0.65892457967738    1.27639851761192
H          -3.59920585164162   -0.03556503770880    1.56006470290846
H          -0.45576054954780    0.04906058826482   -1.80449550751071
O           2.25642877645611    1.76033819560143    0.62583387624978
H           2.74375772946437    2.58423655976161    0.66105632535241
O           0.18372690749355    0.41108610788252   -2.46049257971630
H          -0.11639427513727    0.11732185912309   -3.32172020746132
O          -1.05620454855390   -2.85384799772493    0.42270762054224
H          -1.73741294039946   -2.91166169241933    1.09582373631077
H          -1.28294513364372   -2.05039294028953   -0.09242048202380
O           2.39156644703331   -0.33760428329131   -1.02104746936014
H           1.69732321427548   -0.10185593821754   -1.66365173674542
H           2.54575030285755    0.48297850467919   -0.50605827003510
H           1.67277902843817   -1.07077161204024    0.14640017419169
O          -0.07356409711016    2.45501916149319   -0.50439496501023
H          -0.95829887270988    2.25666059620277   -0.15948456114411
H           1.34054325829437    2.00651459004792    0.36653057962801
H           0.00452068156554    1.99300627984685   -1.34968876946122
N           1.12782775719191   -1.39333323386697    1.01468234660134
H           0.49841768720863   -2.19263983998786    0.79601114196142
H           0.47214486389007   -0.60188561989089    1.28740159850458
H           1.76438481183033   -1.60408790304649    1.77524397599563
