    26
        -50.45611346  Gyration_radius:  2.53551967273 Dipole_moment: 6.287
 S           2.07201702387103    0.71373390229035   -0.16466037389734
O           1.48149550679397    1.88589785731158   -0.80338699399010
O           1.88359869723300   -0.48743219385165   -0.96060655608567
O           1.64827425901452    0.57362419316249    1.21324419860509
O           3.63915266384872    0.95322461704206   -0.13109973436356
H           3.78761542413544    1.60490475486131    0.54893376152784
H           0.10157695387858    1.19141648547724    1.15796509395983
O          -0.77550040165300    1.59974489887697    0.99228613487423
H          -0.58636393056302    2.50528405111040    0.73919120546251
O          -1.65037226386718   -2.12702680021926    0.31894303916679
H          -1.99521558716434   -3.01057346164771    0.44978871630997
O          -2.20378830060053   -0.40374421612728    2.56285811328006
H          -2.10776700658313   -1.03776387705992    1.84024348262481
H          -1.78311901514859    0.40655963681765    2.25872970598260
O           0.91204898913968   -2.09265707921619    0.94468302669773
H           1.01764715496305   -1.44746092518034    1.65321688610217
H          -0.68685977046783   -2.16368388027264    0.55238845290676
H           1.35608376800224   -1.67745157232146    0.18330315950775
O          -2.11326571512181    0.22716394314466   -0.90677449758271
H          -1.80478359240281    0.78474069596853   -0.16053660642936
H          -0.97852715106178    0.37687119916682   -1.86393162888003
H          -2.10488297552588   -0.68126197518228   -0.54946626643404
N          -0.03471402163858    0.53531967353994   -2.39544182031124
H           0.61533556633544   -0.23926718059309   -2.16759005717093
H           0.46474515418934    1.33623807469496   -1.91948037318937
H          -0.15443141961974    0.67359918821389   -3.39280007867053
