    26
        -50.45614796  Gyration_radius:  2.4512539304 Dipole_moment: 3.891
 S           1.37704327553217    0.23656909507281   -1.24218692114796
O           1.05949930735362   -0.31715609788734    0.05170265639866
O           2.63677830940603    0.91157700314063   -1.35664351245310
O           0.24047401633608    0.99246403204159   -1.78609666689797
O           1.49159765758950   -1.06080971206220   -2.20615644417054
H           2.06954136614570   -0.76319005041101   -2.90302763013483
H          -1.04781120777559    0.42087631628361   -1.28372000324094
O          -1.84756150463806   -0.09383396013697   -0.90228283966857
H          -1.52662594133262   -1.10943743733983   -0.94386093753787
O          -0.12495067103150    2.17375359858659    2.18707610081021
H          -0.47032763514777    3.02609147370928    2.45757563374957
O          -0.07536633553130   -1.79101273301245    1.90661142252689
H           0.41889574306326   -1.71616232762403    2.72468668840818
H           0.43032785604197   -1.27374243378297    1.24369415356793
O           1.21081734259323    2.81192597903279   -0.05146964505188
H           2.06054476755882    2.39715815780205   -0.25103756514645
H           0.63632622634685    2.49653489197582   -0.76339518583017
H           0.44515164543046    2.35082632608678    1.40680113794141
O          -1.84046342791863    0.24089414132758    1.57254277386076
H          -1.89528633457751    0.12115162092913    0.13868115176509
H          -1.34406086753419   -0.56421368870277    1.82584290501247
H          -1.24272361401610    0.98901079292548    1.81208804699832
N          -0.83230318351220   -2.41960875368103   -0.93023965702631
H          -0.70478800556850   -2.68026074798473    0.04228740928514
H           0.07712258004163   -2.16956869676358   -1.30761266019610
H          -1.20185133481069   -3.20983678955263   -1.44186042189099
