    26
        -50.45614811  Gyration_radius:  2.45161490258 Dipole_moment: 3.888
 S          -0.97267843905434   -1.53263110549645   -0.45303782942440
O          -0.34542022160842   -0.35156454298723   -0.99451523365678
O          -2.24545065113121   -1.89114685262242   -1.00705309543525
O          -0.94040269390230   -1.52086461708969    1.01605398887972
O           0.03332886893525   -2.73428162795002   -0.86451102275356
H          -0.53606933171615   -3.49828865025818   -0.88037892960433
H           0.26171041485553   -0.77406458705833    1.50159115188536
O           1.13876629688587   -0.27944753605758    1.69183225894904
H           1.78897561689001   -0.63098363152293    0.92386599321773
O          -1.72655301632918    2.52323799660471    0.43102063662147
H          -2.23012106585226    3.05900980992411    1.04611687359776
O           1.49879981096910    1.41458922521517   -1.61177862761230
H           0.79022868272001    0.75043583307269   -1.47189318503472
H           1.14967722502208    2.03372668878361   -2.25505053923087
O          -2.99791339204575    0.16543994820301    0.59276950877855
H          -3.14640025698121   -0.36933396356543   -0.19817586202122
H          -2.40390693972734   -0.38317143999001    1.12450184118897
H          -2.19234306656457    1.65950483582092    0.38409721187674
O           0.84406972787933    2.08191003015619    0.93436692219346
H           1.21853342486867    1.99289598148435    0.03405760643395
H          -0.11299089430428    2.27510718941506    0.78925817481008
H           0.98314696016727    0.74525029736162    1.45134853965767
N           2.46705240952767   -1.10925003113330   -0.30510703036315
H           2.60090057232430   -0.30226978094143   -0.90585851521867
H           1.74470729328128   -1.69036442571988   -0.72046936483445
H           3.33035265493479   -1.63344504371282   -0.25305147290750
