    26
        -50.43955903  Gyration_radius:  2.49314839876 Dipole_moment: 5.221
 S           1.81767271715667    0.25766145839085   -0.88249155068550
O           1.91819295183295    1.68147032912951   -0.51325833310612
O           0.62184655160925   -0.02526178628288   -1.61879979297827
O           2.00434007034643   -0.56967549209727    0.30480441610394
O           3.04641259127989   -0.02961002227141   -1.81849383054731
H           3.78258863536623    0.05755303152998   -1.22182311066436
H           0.90578432914452   -0.44143592751285    1.38362624675392
O           0.20988707139548   -0.20933197956917    2.07117795176610
H           0.59151756285386   -0.45101449304880    2.91772089379171
O          -1.87991993520893    2.42982201013167   -0.22413729123812
H          -1.74647921859314    3.02460817796076   -0.96467402289948
O          -1.99033130201292   -1.49213038505105    0.96487864663597
H          -1.22188529946684   -1.09982620272335    1.41292675554997
H          -2.70868463674235   -1.51823415268830    1.59839046354338
O          -2.02405214395677    0.09922958412035   -1.25716362841259
H          -1.10206690384793   -0.00948816189794   -1.55600761077456
H          -2.14150985114500   -0.56580619466034   -0.55409449002173
H          -2.01815565873669    1.50551983852392   -0.63040498304073
O           0.19397170772586    2.22186505462932    1.14884519474261
H           0.11250218281529    1.34700621968492    1.63276533799872
H           0.97887187195723    2.05961893464337    0.42407392333998
H          -0.70431200687701    2.35431599533316    0.59050101110723
N           0.42143642209628   -2.93221043224551   -0.76784137955084
H           0.31172447034628   -2.67346037152761   -1.74154871781682
H           1.08973856450319   -2.27559225316006   -0.37955275334522
H          -0.46909073384870   -2.74559279934184   -0.31941934624006
