    26
        -50.43955926  Gyration_radius:  2.4931149393 Dipole_moment: 5.242
 S           0.97437260018842   -0.45977050650249   -1.73017602761019
O           1.60122920331925    0.86867595838846   -1.85642002231042
O          -0.45278173474215   -0.37638399067595   -1.63883019807598
O           1.60628165652690   -1.19646735247240   -0.64065306829588
O           1.33448721292446   -1.23029292136114   -3.05109398026989
H           2.27467778905927   -1.35109883132636   -2.96672839868472
H           1.40056242044569   -0.60724976766597    0.77259491437043
O           1.30823337234329   -0.09281125654051    1.63152009549183
H           2.03751340684611   -0.37997192463060    2.18502497883935
O          -1.02619546943048    2.89845382558656    0.15179018512216
H          -1.20814502417003    3.34714529030445   -0.67618729235766
O          -1.35348691772240   -0.62829295936243    2.21234364952228
H          -0.40123054485804   -0.48831137574898    2.07514264724787
H          -1.55906622086072   -0.34457140219738    3.10416252926785
O           1.33921198769015    2.10787503263291    0.24671585481178
H           1.34803754916971    1.35891170682917    0.91390625133139
H           1.49685352486819    1.62450877016242   -0.70682936840401
H           0.34565357121861    2.49334956134705    0.22410619704247
O          -2.28159748222602    0.68043306160272   -0.00024299368254
H          -2.12537002658451    0.15786433801872    0.80784579282327
H          -1.58557901301418    2.04672687889442    0.13616139070311
H          -1.75857891574174    0.23665070081071   -0.69363969729615
N          -0.80954283686134   -2.94981465165717   -0.06850453675184
H           0.09262418955954   -2.53382953370137   -0.27254136047189
H          -1.20245615192148   -2.43310217023844    0.71096322374743
H          -1.39570812601870   -2.74862647050340   -0.87043076612704
