    26
        -50.43955920  Gyration_radius:  2.49323896917 Dipole_moment: 5.226
 S          -0.51417833752320    1.80155068730886   -0.80050048746819
O           0.84008926260935    1.42982775298664   -0.51800029733192
O          -1.22813052926098    2.25686458686813    0.40638940545326
O          -1.29622655758320    0.76730903656584   -1.46959054421942
O          -0.48872790930626    3.03484138944397   -1.77347896116137
H          -1.40673729661964    3.13132687657004   -2.00474560411980
H          -1.46779534463195   -0.55192115644145   -0.68404486023778
O          -1.61992859649707   -1.32280585930747   -0.05674505218951
H          -2.42059542464431   -1.75293953181379   -0.36431807379732
O           0.66599159397672    0.08575463050634    3.00609814419145
H           0.98097608458368    0.91711188466188    3.36611259119335
O           0.88680176616743   -2.51221475400085   -0.15785709532509
H          -0.02026027550394   -2.16230979227944   -0.16324484923545
H           0.85830255872000   -3.37560097873674    0.25661816369730
O           2.14427362743350   -0.36505903311652    0.97350916439376
H           1.86740810567295   -1.19425808392670    0.54209718460574
H           1.83579382418225    0.34414018281666    0.37927561275327
H           1.29897168289738   -0.14458355704094    2.24146035104177
O          -1.56757318516809    0.35881464260973    1.92607752593762
H          -1.64733115087545   -0.39879132850770    1.27350312161268
H          -0.63883440587578    0.23570689848129    2.43427700072042
H          -1.45926202742796    1.23940996489103    1.30890042206788
N           1.09589463119676   -0.55052238322215   -2.80411068191063
H           0.22512970761764   -0.10328659940506   -2.53901390480781
H           1.82280726020504    0.13523786121407   -2.63564429829439
H           1.25314092569118   -1.30360333714055   -2.14302398754151
