    26
        -50.43955901  Gyration_radius:  2.49309979354 Dipole_moment: 5.221
 S          -1.60630104549810    0.47811894380718   -1.15840546913720
O          -1.81482792179591    1.79078466436719   -0.52053648148675
O          -1.61740750345545   -0.59196676353584   -0.20600749595531
O          -0.41333203389724    0.52619954648842   -1.99719082932203
O          -2.82276200635250    0.27720574608902   -2.13218091682495
H          -2.66523534355129    0.94139902805085   -2.79523486747384
H           0.92039385558745    0.73059273433136   -1.24425586626192
O           1.71827836822187    0.97724625110047   -0.68447647871406
H           2.34624305111181    1.37627720462948   -1.29038803955443
O          -0.19542127122880    0.98095764516054    2.91251115834121
H          -1.07349567832313    1.11122906998894    3.27579599456566
O           2.16236238055008   -1.44491724849100    0.59817295642727
H           2.07744032640258   -0.61000409710818    0.10732468552928
H           3.00943123280487   -1.42891497179630    1.04572666673768
O           0.13881193501896    2.35421301984307    0.85549060277082
H           0.01058632728343    1.80998861466772    1.76318101103764
H           0.87209983842231    1.90105475827546    0.34260567408266
H          -0.75181192791123    2.17786012863129    0.26946118351367
O          -0.22099483501165   -1.37729506450113    1.93420837498596
H          -0.83073045918304   -1.24156635476444    1.18523109579481
H           0.64194083879033   -1.57322135427074    1.52505236812245
H          -0.16789875288347    0.01479694683438    2.58943247117377
N           0.15576276901613   -2.45396275034149   -1.82070534133319
H           0.85217114932834   -2.44172907074885   -1.08325381827187
H          -0.70050516129217   -2.79641619422169   -1.40038190801827
H          -0.02479813214742   -1.48793043248991   -2.07117672071596
