    26
        -50.45462881  Gyration_radius:  2.52340598316 Dipole_moment: 3.153
 S          -0.31293481190882    1.92714011165976   -1.65925242322976
O          -1.49492426693870    1.49404208956818   -0.94608488167458
O           0.35199321397629    0.81747204072865   -2.34322407518200
O           0.62242133092264    2.67710522434135   -0.84354195094012
O          -0.80583858593525    2.90632009267049   -2.79674052209964
H           0.02628817713098    3.18746794001566   -3.16091009213779
H           1.40520132679203    1.68675366425637    0.11866246718492
O           1.82436979662422    1.06802461975610    0.77441917991304
H           2.62401644630815    1.50476324586918    1.07199999660536
O          -2.08478746527611   -1.01607898346634   -0.29076309605941
H          -2.20749667684473   -0.14656053492949   -0.71799401853169
O           1.64944365522511   -1.59556995067161    0.31345244810766
H           1.07656932474515   -1.87455672520999    1.08039935406099
H           1.83493615436190   -0.64546889842460    0.45342800074226
O          -0.80978640865106    0.62854271592699    1.55450359976204
H          -1.75921087216057   -0.77079102425008    0.59131855037147
H           0.14259446587162    0.80424264795479    1.54337039636564
H          -1.15708745510561    1.15911085892474    0.81711792451043
O           0.04136752359584   -1.53893692666863   -1.58073487649821
H           0.18819813244512   -0.59551130918971   -1.98356298365033
H           0.78897247579374   -1.63031900852716   -0.81035400773117
H          -0.86156232680433   -1.46616397117319   -1.08975502951000
N          -0.07794447419988   -2.14079437155071    2.28560338227076
H           0.30202385817294   -2.44079931146582    3.17389627910265
H          -0.82033012896149   -2.78050458453304    2.03153977225247
H          -0.48649242917419   -1.21892966139999    2.41320662619031
