    26
        -50.46656039  Gyration_radius:  2.45791290415 Dipole_moment: 4.202
 S           0.43991676990908    0.43358784355411    2.03556882808338
O          -0.66561710880765    0.80670352577957    1.16630329835381
O           1.73526668777154    0.78103132673863    1.48563689213514
O           0.36665847270244   -0.94864837403207    2.46927586331420
O           0.25753821586822    1.32061203408945    3.33746807332855
H           0.98595417300394    1.03285285545264    3.87739000840215
H           0.15099274902402   -2.04686663611848    1.34173501799800
O           0.02168610635553   -2.65116812918439    0.56209290826617
H           0.16070107765767   -3.54056318001368    0.89101273950487
O           0.67071353532348    2.58876496839884   -0.25793891346643
H           0.01048761462545    2.07696935344044    0.24892939163518
O           0.78124039417365    0.89205573646187   -2.27263513086017
H           0.79019009365421    1.65674947466213   -1.63992278684881
H           1.25813670537967    0.17466434883865   -1.78108777838319
O           1.81196780369553   -0.87174333213208   -0.62279234747049
H           1.49201235826367    2.38795893295007    0.20785307933942
H           1.91715185650799   -0.30097404529865    0.16270097072455
H           1.24905484846318   -1.60980322033994   -0.34542989218647
O          -2.07095201901978   -1.04229963091061   -0.04870532384578
H          -1.46457226423695   -1.79664849974132    0.06539875377313
H          -1.68704112074786   -0.34379070235360    0.52853572138298
H          -1.85220143974341   -0.36254769749684   -1.39282696392619
N          -1.66486682803266    0.19651292196960   -2.30079466257668
H          -2.23301443237712    1.03736468601482   -2.28925778415554
H          -1.88691742834661   -0.36483400288441   -3.11584320419571
H          -0.57448683096694    0.49405942217887   -2.31266677837647
