    26
        -50.46656038  Gyration_radius:  2.45784957882 Dipole_moment: 4.200
 S          -0.81122977211301    1.05080822740901   -1.66179181943098
O          -1.80282437493322    1.45331308485029   -0.68417178004404
O          -0.36596307741205   -0.32341915907037   -1.48764067300084
O           0.29255879496552    1.98678733122652   -1.75992869072204
O          -1.54113121231935    1.07179656989070   -3.06958213307908
H          -1.79772819723497    1.98456460294035   -3.14667162262171
H           1.41096843794139    1.90252442300741   -0.63484789409127
O           2.04845751331688    1.77120731107706    0.11754314678804
H           2.64242308743542    2.52302768124373    0.09522923857400
O          -2.43990109740812   -1.12423141673483   -0.05677114569541
H          -1.69002542999400   -1.03047516820432   -0.67615677751432
O          -0.94842283375213   -1.09054982266926    2.11670819092164
H          -1.62784371250471   -1.20132818646199    1.40163706852087
H          -0.70763938922911   -0.12980134727416    2.06542035415386
O          -0.31642404389788    1.39323859376378    1.54528741140373
H           0.57926082319884    1.56505768503817    1.21850833489219
H          -0.91345461872568    1.53020709681756    0.78460960722500
H          -2.81460390758496   -0.23468964335960   -0.04719294487543
O           2.06652579720155   -0.82683023818494   -0.65134478756633
H           1.22286815626740   -0.67680088085764   -1.13532678622526
H           2.29805052846956    0.05597141727250   -0.30953943214613
H           1.52837885476710   -1.71982715160579    0.45772731447091
N           1.06132553290018   -2.35222821257061    1.20191613105050
H           0.72569816982325   -3.19602275492104    0.74872744123046
H           0.17784541523749   -1.79483815217470    1.63372966452635
H           1.72283055564250   -2.58746190051391    1.93392258327189
