    26
        -50.46656031  Gyration_radius:  2.45792813048 Dipole_moment: 4.205
 S          -1.94210670864131    0.68846780370714    0.52852054205590
O          -1.19883781310583    1.83225565487672    1.01874579924958
O          -1.25185330072962   -0.57386712816507    0.74559645943814
O          -2.38600393999287    0.85318286901494   -0.84260079369131
O          -3.25417552153802    0.59821805871204    1.41487124479022
H          -3.67570858351947    1.43088350968055    1.23074211655678
H          -1.30904159880085    0.60416696398219   -1.98348612672703
O          -0.56063457931619    0.43251849738785   -2.61611795739799
H          -0.86718723775105    0.72790949474388   -3.47476707214503
O           0.36627586265490    0.29975246612201    2.64509788460346
H          -0.23780259674747   -0.20740362930447    2.06827077318191
O           2.36800404135433    0.31022879103348    0.92957170681012
H           1.74678204939586    0.32109256241470    1.70359590891102
H           1.95313470366132    0.94092872925245    0.28629639562287
O          -0.27349195728262   -1.91009924646169   -1.28599848056441
H          -0.78233029605857   -1.53139269107892   -0.53359311111521
H          -0.29545896035066   -1.20535234819622   -1.95885112038256
H           1.09053603933241   -1.98405179492049   -0.61508842119940
O           0.89051667138030    1.78923746933353   -0.65935156209056
H           0.52745684581181    1.37023475742588   -1.45379893180894
H           0.13246534876357    1.94197289605536   -0.06281731549037
H           0.03182439489320    1.20085476211219    2.55576179651743
N           2.01851059581838   -2.00728332121021   -0.05784596667969
H           2.19849497784491   -0.97644775370207    0.36942797174711
H           2.78784720208021   -2.27957623847905   -0.66009190493781
H           1.92278435085068   -2.66643111427867    0.70791015455225
