    26
        -50.46559603  Gyration_radius:  2.4759971658 Dipole_moment: 2.708
 S           1.73063371849117    1.37556372584960    0.49820332078336
O           2.10377843271348    0.54816171441855   -0.63085077156254
O           1.73254190257375    0.68549455141513    1.76868330019513
O           0.46064051685495    2.06502447626045    0.24350598291527
O           2.82853575638202    2.51036086304012    0.63322810951156
H           3.04731157353304    2.42996961216020    1.55496296359446
H          -0.91812303525129    1.38040063130944    0.68783974903214
O           0.85062190308276   -1.77171349709140   -0.44139893837540
H           1.47347637788572   -1.02219750057264   -0.54767747268748
O          -1.76677064310594    0.89313900445833    0.85830913713307
H          -2.40642706913086    1.55298961546730    1.12865857354056
O          -1.86497581817432   -2.76785401999340    0.15717534208090
H          -1.25523932391625   -3.45879353371042   -0.10932597014117
H          -1.50387167815283   -2.40627364633613    0.97514216930082
O           0.20685142055982    1.49997801312911   -2.32033701657624
H          -0.43863641154134   -1.16890892452289   -1.07890643250201
H           0.21980237983758    1.92733598869179   -1.43739832639272
H           1.08770577232331    1.10657424578967   -2.36820882786629
O          -0.20928026230125   -1.12567589351430    1.96662074370146
H           0.59106953482506   -1.74868725977390    0.50224572900111
H           0.56725268102617   -0.54296389395252    2.09003276451093
H          -0.93400209727787   -0.50610150759124    1.79529459599724
N          -1.23411795547584   -0.52935065903649   -1.42388228728073
H          -1.68051186966523   -0.12611921733479   -0.58071600845174
H          -1.91006623922691   -1.06238852980170   -1.95997386995328
H          -0.77819956687377    0.26203562125344   -1.96122654950711
