    26
        -50.46725405  Gyration_radius:  2.51601742113 Dipole_moment: 2.180
 S           0.65315132032107   -1.84124111341796    0.94271798858004
O           0.74120742292008   -1.59056064273638    2.35445397668853
O           1.32211111345734   -0.81813239066621    0.13563135853478
O          -0.69924391380706   -2.08121850502173    0.46494485337199
O           1.47082604279483   -3.17999861563567    0.67722989130205
H           1.46400843042898   -3.58725540841722    1.53738557271867
H          -1.08742231299650   -1.90218623973171   -1.13067572940528
O          -1.41570089113138   -1.73689876886566   -2.04397203008143
H          -2.06579716261296   -2.42079416480852   -2.21087243507274
O          -1.49028871188204    0.43624333572759    1.04480582814740
H          -1.33375428777410   -0.51969842021551    0.96504214381863
O           0.99152145932053    3.13946703413846    0.18594003705142
H           0.14650811947126    3.55646229918326    0.36832949122381
H           1.16952898931149    2.55234096749231    0.94272382401618
O           1.08768922226427    1.08510679772070    1.94930372766674
H          -0.70266475429359    0.79361526941893    1.48264883419978
H           1.10168291526770    0.62672058892514    2.79485889780207
H           1.32134874832137    0.38543170710046    1.30337569055219
O          -1.92406738703064    0.84670847275865   -1.57227581772988
H          -1.98419286582487    0.80268997627378   -0.59331934450922
H          -0.42708174272914    1.06267578500423   -1.68286909979464
H          -1.93618171485898   -0.08992156230572   -1.86416372078179
N           0.65206079669074    1.11539706491768   -1.56968102541724
H           0.88045674435500    1.97180980466146   -1.01227751097071
H           1.12618116124917    1.11203837504439   -2.46532938367500
H           0.93811325874602    0.28119837346449   -1.00395604823991
