    26
        -50.46862857  Gyration_radius:  2.47495168863 Dipole_moment: 4.021
 S          -1.74194668426492   -0.59070225653167    1.28913144631602
O          -0.61714073927507   -0.21596050387099    2.10175467675737
O          -1.30821591234787   -1.33703638851531    0.09575449115466
O          -2.64197915068543    0.48991257303905    0.94316344762219
O          -2.61445531806031   -1.61577684951970    2.13179895264065
H          -3.47631253764867   -1.47717343927829    1.75347785330293
H          -1.64078772635135    1.59140746874072    0.33233682061135
O           1.53641364523869   -0.13369397517076   -2.25125889568255
H           1.81059714775375   -0.19345218442492   -3.16649032938016
O          -1.02675345436328    2.21201103724237   -0.13190388639424
H          -1.29523458642770    3.09491209952770    0.12833467924217
O           2.02923371934305   -0.06959654013465    1.82875741604300
H           1.13238931471986   -0.04482071818305    2.21190255659862
H           1.70318874998192   -1.09601580325511    0.77712039080715
O           1.70654536012470    1.73899050324409   -0.10192851278806
H           2.07052794175568    0.72847225042564    1.25170234617151
H           1.81268551576321    1.22599574621594   -0.91436888745665
H           0.76041224663313    1.95822835859524   -0.05017389730169
O          -1.02695896472921    0.23840493259070   -2.05865938195252
H          -1.11911406132796    1.10523174036594   -1.63455355457810
H           0.54559056047645    0.02358124700349   -2.26065561714811
H          -1.27112552195814   -0.40052095862064   -1.35984559415971
N           1.28953945764575   -1.69475302123534   -0.03707546224743
H           1.60195020737815   -2.65789439471713    0.00093313845392
H           1.54558156996011   -1.24486936591825   -0.93671176439550
H           0.23536923067098   -1.63488159761900    0.05745755777152
