    26
        -50.47082058  Gyration_radius:  2.42039486112 Dipole_moment: 3.998
 S           0.99739340883408    1.70212932380663   -0.41290702124178
O           1.48316628911742    0.89072955097843   -1.51670341540632
O           1.53469356723408    1.28125189924761    0.86188179330639
O          -0.45614231352851    1.81997857190504   -0.40645433484139
O           1.52045711897633    3.17319004633621   -0.67552820664857
H           2.46245500565679    3.04622164350901   -0.70237527680171
H          -1.51886972262088    1.14762245600199    0.61074703555435
O           0.35194734266339   -2.40583618716688    0.77137902030189
H          -0.81120815551654   -1.95288228188353   -0.01950648314328
O          -2.18933999487515    0.64174923239358    1.13571553308813
H          -2.90915537408990    1.25160118986856    1.30313903506280
O           2.49777384794294   -1.15553878568214   -0.17419412334377
H           2.71787878010902   -0.66992269374975    0.62681460393875
H           2.17806855320984   -0.46621732961152   -0.78874537548684
O          -0.91445704805302    0.17257141225227   -2.40756468325117
H          -0.95815313561170    0.93963694409856   -1.80184569599536
H           0.03845255645761    0.10995214422753   -2.56838817027944
H           1.18818780314603   -2.12433437754984    0.33109286425021
O           0.11111738422326   -0.36366214916606    2.44372556487123
H           0.28858476193423   -1.80554657707345    1.55347003255921
H           0.69513205635358    0.26672090465332    1.97817118213378
H          -0.78330713376994   -0.02772576896738    2.30634127237738
N          -1.68823693608965   -1.49998634506192   -0.50447296930094
H          -1.38125017615780   -0.94997812235951   -1.35826256097810
H          -2.08290981609026   -0.81529660452888    0.16524129339569
H          -2.37227866954069   -2.20642809648017   -0.75077093403910
