    26
        -50.46620037  Gyration_radius:  2.47643099978 Dipole_moment: 3.153
 S          -1.57290316883806   -0.08309950286715    1.28642498428069
O          -0.72007623995872    1.08884366076026    1.26734492184062
O          -0.82335179366790   -1.31017814592223    1.03358937797203
O          -2.75217825096579    0.02364038202973    0.45579971908811
O          -2.10029366734655   -0.19514713486799    2.78153127644163
H          -2.86983730051790   -0.74787853853655    2.69405227654145
H          -2.44864194378678    0.25042071288588   -1.11954087204103
O          -2.17449084933881    0.36735079101021   -2.06197486495933
H          -2.98296124229052    0.47645388899459   -2.56476624320697
O           1.71776271029287    0.15240530872014   -1.72283070982829
H           2.43171325511012   -0.00655116644868   -0.54937184324311
O           1.20433718050012   -0.32757864508960    2.32719991928100
H           0.67594309818747    0.48485456943516    2.22106230658345
H           0.57688331395544   -0.99208241207533    1.97369482431741
O          -0.08108508873317    1.97015807014009   -1.19374849599238
H           1.13481778177503    0.95184853672385   -1.59496691559438
H          -0.82828475541527    1.60204916906235   -1.69186294993081
H          -0.29665715555476    1.79397120752685   -0.25833021730622
O          -0.23878337454920   -1.57212225567322   -1.57437359985122
H          -0.94672924613699   -1.03917157223806   -1.96898025237114
H           1.06627289864013   -0.60155814644333   -1.76120692770584
H          -0.44984994624860   -1.60712613353002   -0.62126166554420
N           3.00870930720770   -0.13959390443359    0.43326376570119
H           3.56969166841202   -0.98357309108100    0.38717079367419
H           2.29517710838720   -0.22258822129721    1.23258694707851
H           3.60481571075575    0.66625258332746    0.58949444538067
