    26
        -50.44910290  Gyration_radius:  2.52663570447 Dipole_moment: 7.157
 S          -0.48386862555656    1.43700620632593   -0.54155972865783
O           0.73894218761089    1.16988890539386   -1.42109374614958
O          -0.14503697283830    2.01748893474737    0.71047819253169
O          -1.24216283660536    0.19107709779053   -0.44894033000331
O          -1.29150315845456    2.42819956667337   -1.38857657833532
H          -1.49091097064746    1.91156201716702   -2.24293538758254
H          -0.52154234537150   -1.27461296537837   -0.13784055636894
O          -0.01838861302039   -2.10335131200479    0.02725090573665
H          -0.58579844939473   -2.83104780524169   -0.23124497032502
O           2.55462354555892    0.00430066741474    2.10428039930061
H           3.30311609720425   -0.32386396085350    2.60439363336410
O          -1.58866093542515    0.34386871505995    2.31330329204639
H          -1.07824659687071    1.16319608951800    2.28342067658706
H          -1.75342399745591    0.14867390306133    1.38135213091632
O           0.42163697293250   -1.42553090111900    2.72455036010347
H           1.75712248161568   -0.47457081107257    2.44773382243617
H          -0.33897204742566   -0.81166424404951    2.78626983883090
H           0.30713820360003   -1.87652798683947    1.87550635780539
O           2.21559667948394   -0.56483759340262   -0.42575193399314
H           2.43925597677072   -0.26383907361244    0.49728684884270
H           1.59478703489709   -1.30359268665691   -0.31154856103255
H           1.42105789633649    0.46811050653892   -1.00149408782054
N          -1.57339170599308    0.72154460027350   -3.29017045514658
H          -0.65832927940880    0.61539778012195   -3.70785217655148
H          -2.28175208793203    0.64204263212087   -4.00753070365030
H          -1.70128844360277   -0.00891829196800   -2.59928725289180
