    26
        -50.44910287  Gyration_radius:  2.52662528133 Dipole_moment: 7.157
 S           0.34550436615218   -1.49230634751892   -0.49641043993636
O           0.72764420416242   -1.83926171150626    0.82758870471596
O           1.41020437455794   -0.66925072951931   -1.22387626655314
O          -0.91829005850976   -0.76477643322273   -0.59382756504820
O           0.24394656159491   -2.74909450821236   -1.36951932431448
H          -0.04681741089317   -2.39148041867373   -2.27735696757150
H          -1.03775567046145    0.86667701996170   -0.29653332091783
O          -1.02081714908331    1.83505219921316   -0.12574333782279
H          -1.82005078855691    2.20030446835031   -0.50800880159026
O           1.90064416170191    1.22375239747224    2.41730954878880
H           2.31834423605252    1.87100873264389    2.98707140277448
O          -1.56015106338530   -1.06753096911279    2.10232365623156
H          -0.72366130975695   -1.54047466133754    2.19888181833453
H          -1.65584610396049   -0.97514462117143    1.14517968857009
O           1.71535469040232    1.56142343637408   -0.16953939057438
H           1.91404504433308    1.40453138989160    0.79404491868283
H           1.60455193604359    0.27392072560038   -0.76949390201993
H           0.80869475140400    1.91027226172912   -0.19126633701792
O          -0.72128616702174    1.45049400867915    2.64739926748722
H           0.93014697455124    1.25969643631593    2.61760955976653
H          -0.90782935903150    1.79142759316052    1.76063415892978
H          -1.09773007393491    0.54637268079397    2.65205205196851
N          -0.52712782704329   -1.38685123338562   -3.40860977914444
H           0.27847890885408   -0.85376130632451   -3.70841242186749
H          -1.08866800366775   -0.80823435850980   -2.79451289751817
H          -1.07152924452239   -1.65676606167655   -4.21698402435654
