    26
        -50.47200637  Gyration_radius:  2.49868290117 Dipole_moment: 3.923
 S           1.57381555289845    1.51175801247791   -0.24761146295399
O           1.79062384569830    0.09051623592917   -0.40786812184161
O           0.86654395364756    1.82964657163097    0.99155568924451
O           0.95433534447067    2.14579010371182   -1.39542765286188
O           3.01224004077813    2.16124180162700   -0.10760132296273
H           2.82169246932547    3.08887324593163   -0.19797833470391
H          -0.41490668279265    1.46263761938878   -1.83875341564036
O          -1.27940537600300    1.00658230235452   -2.02133653557530
H          -1.69809547201356    1.50778307751831   -2.72307940133261
O           1.45818152573662   -0.45640799224740    2.15050069090901
H           1.26899045792009    0.49739559572083    2.04664581152279
O          -1.07034417821134   -2.99173022370157   -0.26406192564638
H          -1.85538203962528   -3.28460459724209   -0.72833072473079
H          -0.54458874138686   -2.46092631136407   -0.92515450048611
O          -1.66091162188287    1.08512676508277    0.68178587574929
H          -1.40575587014153   -0.32790070282436    1.32916493310319
H          -0.79066299713384    1.50649567940013    0.85095597534829
H          -1.72947208577215    1.03575387458145   -0.28849270007582
O           0.13089000143802   -1.37515209586006   -1.92928858941052
H           1.86629558894068   -0.66110771259400    1.29255732785708
H          -0.48534388367379   -0.65220592013125   -2.12658339709470
H           0.86336598721815   -0.94373936525874   -1.45048710389730
N          -1.03139599581929   -1.23801270048078    1.74214331298390
H          -1.07774468445022   -1.99199649908321    1.01001286250646
H          -1.55113933800715   -1.50312526069597    2.57115698160162
H          -0.01182579116465   -1.04269148387632    1.98557573839594
