    26
        -50.44231583  Gyration_radius:  2.42785558324 Dipole_moment: 4.899
 S           0.50663053897822   -1.74504964663486   -0.71841791141576
O          -0.47825013906137   -1.20532563139599    0.18641144755581
O           1.62545220393969   -0.81089716893196   -0.90304291975408
O          -0.00986220075117   -2.22063390761119   -1.97499691358764
O           1.11850098251499   -3.03019458397146    0.01667323729027
H           1.52618614294279   -3.53676241196833   -0.68033557176181
H          -0.79600140546254   -0.62290387361387   -2.25781964623677
O          -0.52617189870296    2.16375509294846   -0.91020115525941
H          -0.25403992343857    2.88245393005613   -1.48316727381878
O           0.08633329334995    0.99301470121382    2.69795371504153
H           0.03533580198822    1.76637542614264    3.26068010773544
O           1.80992176948717   -1.15957623313800    2.05273571415985
H           1.48879097961673   -1.84239469634747    1.45982036283179
H           1.04725142405044   -0.83854144930950    2.54374685674299
O           1.42584805193164    1.20854609441390    0.47412955437750
H           1.60463941378787    0.27628449304890   -0.05129461634792
H           0.66034868231530    1.63054055439364   -0.04632393788506
H           1.07092446283872    0.98749198603977    1.39646288521843
O          -1.99269529011645    0.78863617982465    1.11252647293611
H          -1.77881995714757    1.44755184932121    0.44107172266038
H          -1.63153573303868   -0.05021572019320    0.76928045212503
H          -0.78927999965623    0.90219791968789    2.23585846237978
N          -1.33646147676597    0.22509618742191   -2.44488014895022
H          -0.81629510674899    1.39676707299540   -1.52185311758366
H          -2.29808670970786    0.00657496006018   -2.21041151099917
H          -1.29866390718406    0.38720886551222   -3.44460625743733
