    26
        -50.44637563  Gyration_radius:  2.66475043006 Dipole_moment: 6.715
 S          -0.81611663061625    1.44695774367997   -0.80425356782220
O           0.62759547072291    1.78496811545692   -0.39750968603637
O          -1.66279492788604    1.35518875091155    0.34190496244229
O          -0.77909835664247    0.24953554172334   -1.62290847074317
O          -1.20975536029105    2.64461934913803   -1.66651146587042
H          -0.57379460559460    2.57250560557658   -2.47270620745226
H          -0.62357203853061   -1.18232345867651   -0.81560727105864
O           0.54639049245529   -0.38344290681891    3.08491940406958
H           0.48821369374711    0.36598653918179    3.67793503755922
O          -0.41875037557240   -1.97946508165819   -0.27510930815985
H          -0.48258351259700   -2.73188585366658   -0.86660201313797
O           1.07747155692703   -3.07841798303123    2.06336477814025
H           1.05501923397478   -2.34759083904732    2.68963493536577
H           0.44102362740202   -2.86176334305973    1.37642987313208
O           1.62276085439393   -0.25301690843989    0.65761521139190
H           1.09090555045199    0.96240766589973    0.05310340113463
H           1.37679354100971   -0.25112019588900    1.61425612584581
H           1.16536964536291   -1.02515247601513    0.28838179809843
O          -1.78059476045121   -0.82937634898603    1.93222239374352
H          -1.53401380436648   -1.46206786998836    1.24450444283897
H          -0.37763388711103   -0.56510610419881    2.76833747677866
H          -1.92082334725089    0.01188371439334    1.46468911282362
N           0.49878458743450    2.03420281244465   -3.46471804668011
H           1.42929618515080    2.27720322187101   -3.15149883162345
H           0.43043504640812    2.19021872160812   -4.46162344895222
H           0.32947213144350    1.05505161752337   -3.25825062580643
