    26
        -50.44688749  Gyration_radius:  2.60248819183 Dipole_moment: 6.360
 S          -1.05414987788975    0.12992532693935   -1.22727110058225
O           0.34223948833125   -0.15630359284460   -1.78099360694809
O          -1.05229370525428    1.32955701283778   -0.44596389678595
O          -1.51768670518316   -1.04941869100555   -0.52212186325725
O          -1.89510012635266    0.32867203275053   -2.49202316599956
H          -1.86421503892222   -0.59229855515365   -2.93816373761146
H          -0.60778042158685   -1.24844353699487    0.85390922658857
O           1.37649219311500    2.44458597850584    0.76729794518368
H           0.84446847095342    2.70168627315766    0.00951576740273
O           0.02685227623049   -1.23626007312961    1.60351112260173
H          -0.06840135688352   -2.06324021814927    2.07821590424029
O           2.24622841240323    0.70282405452339    3.07383212625016
H           2.64357931083143    1.39663008065697    2.54181432122398
H           1.38650792379750    1.03370445278558    3.34782932237953
O          -0.59032438470461    1.37110627163208    2.26818760486190
H          -0.36359976203374    0.42572954979472    2.26575260482950
H           0.71413309089251    2.18822379167275    1.44826513792964
H          -1.09588601570556    1.49572653883844    1.45190403382032
O           1.96854404909832   -0.03422562210799    0.08008491297832
H           1.91444588547929    0.92291550549481    0.34322946064194
H           1.55314666717603   -0.52340102704112    0.81457961780577
H           1.09481564338923   -0.12279146263670   -1.00694229587748
N          -1.57516234572389   -2.11875818597212   -3.16972050612638
H          -1.59245847854907   -2.34332444005237   -2.17976643318014
H          -0.63305120366168   -2.24780311429610   -3.51426040285618
H          -2.20134398924911   -2.73501834021237   -3.67070209951247
