    26
        -50.47250301  Gyration_radius:  2.48736013792 Dipole_moment: 2.879
 S           0.94350836926666   -1.62071615907528   -1.27513773060250
O          -0.35334985783858   -1.63242143386728   -1.94073981559416
O           0.81396045424881   -1.48662863489899    0.16324529404091
O           1.85002820276712   -0.65497087804439   -1.86623534323330
O           1.59051729677477   -3.04443956497255   -1.52823658626855
H           1.78037776731350   -2.99564482224682   -2.45881465067885
H           1.46921241686402    0.85080499603836   -1.51092160149794
O           1.25418016596640    1.77835636176006   -1.22853690592625
H           1.61460995930266    2.35075597243205   -1.90735765667288
O          -0.42127451031259    1.30782253216680    2.38799693101608
H          -0.29029415816123    1.76129192289256    3.22087705886327
O          -1.27491335595723   -1.25852444253814    1.85784176148898
H          -1.05159973592407   -0.39005575754825    2.23998407969027
H          -0.45783813052470   -1.55248979878751    1.41420350475421
O           1.85490677297698    0.71019007941763    1.27127626906541
H           0.49116086452857    1.09593435906357    2.03434528509389
H           1.62648024884173   -0.17505762718091    0.92293517521594
H           1.88026748652812    1.27844310486260    0.48744550122500
O          -1.24538196456208    2.00199585269114   -0.14731684945386
H          -0.37736107882430    2.00614048544075   -0.59352090669616
H          -1.89834492095116    0.57653165974388   -0.44617158928203
H          -1.04507247801276    1.92355089933773    0.80283667395616
N          -2.16188612458903   -0.45199800223902   -0.48063336936369
H          -1.48436484738720   -0.94785200759245   -1.12963954781875
H          -3.11971145749659   -0.58582262046021   -0.78313735851861
H          -1.98781738542945   -0.84519648780552    0.49341233839190
