    26
        -50.47250303  Gyration_radius:  2.48738943992 Dipole_moment: 2.878
 S           0.68365751479088   -0.06184205151486   -2.16161355042197
O           1.29302912015163    0.51667972165849   -0.97938489226328
O          -0.63263692512607    0.50471414041580   -2.42910679804306
O           0.65971612504257   -1.51202413327051   -2.14870546129234
O           1.60669743782959    0.35245526550087   -3.38060575092170
H           1.23791359172860   -0.17929329294735   -4.07751121223183
H          -0.04366735010392   -2.10756968151124   -0.84904617624988
O          -0.42888468114659   -2.46138971408421   -0.00478911195000
H          -0.74981170264467   -3.34076932738087   -0.20983245924489
O           0.42078818392245    0.38338998921045    2.69589557705066
H           0.77633618458380    0.34120179247505    3.58375409220309
O           0.53689964299030    2.39056314624544    0.81084295617618
H           0.55575085767540    1.83531201496581    1.61177880370999
H           1.03094717262255    1.88010143828953    0.14290329756011
O          -1.81483907683998   -0.57120078366575    1.40021840182487
H          -1.13135570878695   -0.26259165419670    2.02205772973816
H          -1.88639020525489    0.65614109429876    0.38242184074705
H          -1.40374413298276   -1.30960765678062    0.91206851069436
O           1.77175249878901   -1.13408379238486    1.06577334500313
H           1.77341962095137   -0.55103070938412    0.28011690020093
H           1.00085998419999   -0.20486992300797    2.13025456638162
H           1.14748197372821   -1.83954087988686    0.84096131199395
N          -1.68709997057737    1.48250793648004   -0.25474569257048
H          -2.50872030112220    2.05955833779887   -0.39190591074004
H          -1.32421976412693    1.10985006831057   -1.17969938626579
H          -0.88388008032817    2.02333865436076    0.18789907883865
