    26
        -50.47250310  Gyration_radius:  2.48713476238 Dipole_moment: 2.885
 S          -1.24750274995233   -1.32502812393590   -1.35307015652373
O           0.05133563418706   -1.76619989711065   -1.84662854987763
O          -1.28199014173693    0.10602526320387   -1.11969854410212
O          -1.69143668661306   -2.10716363363936   -0.21516334311974
O          -2.28771138493442   -1.60657947115014   -2.51420970936646
H          -2.31828943313227   -2.55711844863552   -2.50600420694173
H          -0.87367408733289   -1.77822442601384    1.11212406987216
O           0.49753614753665    2.35151305856170    1.34657143255622
H           0.41055764211870    3.12567429204733    1.90298212672875
O          -0.39768328326927   -1.51556039774909    1.94324095205921
H          -0.44385943856942   -2.27575847031169    2.52488802936845
O           0.50638120406016    2.10858313513095   -1.39860573558703
H           0.53594144000420    2.40124139528678   -0.46929530011364
H          -0.29195980142989    1.55182674486543   -1.45874352474216
O           1.85439825181604   -0.04269177321747    1.46691694184541
H           1.10949802885397   -0.62781203120531    1.70202361708157
H           2.02592823419850   -0.15239464888954   -0.11609253091052
H           1.50786677212968    0.86325340946619    1.55793330809533
O          -1.66684587813907    0.90322762056142    1.40093280386696
H          -1.70352198941267    0.64652653088648    0.45760807555809
H          -1.39046991738330    0.09655011900464    1.85988809243481
H          -0.37390002806127    1.86188309904829    1.40434916165089
N           1.92958046856313   -0.08872552985510   -1.17215975229796
H           2.81847574549270   -0.22058047938031   -1.64043060032475
H           1.49935467684840    0.86209786081785   -1.38334861965316
H           1.22199058397404   -0.81456522802871   -1.48600801683054
