    26
        -50.47250303  Gyration_radius:  2.48706647585 Dipole_moment: 2.887
 S          -1.74587362832554    0.34529159712043   -1.40531164749122
O          -0.72330660684827    0.92048262229200   -2.27064186724001
O          -1.54865524669075    0.71037063774592   -0.01552525200388
O          -1.89390492808361   -1.08255147596933   -1.61268790357176
O          -3.12157784641847    0.99891372763701   -1.84114400919031
H          -3.25132005942866    0.59895997193328   -2.69416157775253
H          -0.66828739582052   -1.91449162806143   -1.02541568176046
O           1.14799356653569   -0.11037464587700    2.50230374191661
H           1.32495576120433   -0.30798931886659    3.42215929672518
O           0.07154061237942   -2.42130655195476   -0.59876916503948
H           0.13066574949142   -3.25140003617192   -1.07398454365403
O           0.26569554881833    2.21024164289003    1.30543162798568
H           0.61802438591248    1.51798501024585    1.89431642965477
H          -0.56602749287857    1.83988275042957    0.95626662984732
O          -1.03269971688929   -1.28058661463008    1.68947847335709
H          -0.71536419733620   -1.94305387277420    1.05843155582242
H           0.29150298288052   -0.57522788120510    2.27256444838366
H          -1.39170490495002   -0.56316291467587    1.12947593356266
O           2.20545584809866   -0.84998083363658    0.06877237421030
H           1.85759313166824    0.54171027601861   -0.63054785971062
H           2.00575826741924   -0.64916906947919    1.00090502887679
H           1.51298633498920   -1.47731443376244   -0.21319058409804
N           1.44101497809432    1.47315873873289   -0.92642502822281
H           0.59646516420656    1.27980856955376   -1.53908609293479
H           2.11727526905957    2.05190478876635   -1.41073297350931
H           1.07179441525781    1.93789896780667   -0.04248135569375
