    26
        -50.47250315  Gyration_radius:  2.48723793083 Dipole_moment: 2.882
 S          -2.08060262573179    0.23743087253839   -0.87052413397655
O          -1.98744003425483   -1.20389038101222   -1.06837106849373
O          -0.83229751219680    0.90905019957754   -1.17754876185882
O          -2.61205870550052    0.57428033303186    0.43627398552854
O          -3.13662179300962    0.76766891762451   -1.92571364280521
H          -3.94369263762238    0.40844317626898   -1.57357751645916
H          -1.57198890139195    0.30322335015260    1.61266119683024
O           2.58773079184077    0.84087488102030    0.43146410618341
H           3.35556491695212    1.36490213972459    0.66020355239198
O          -0.89017750556571    0.18848978341758    2.32555327289384
H          -1.37900388961440    0.05714057881705    3.13926889636425
O           1.59495347952274    0.08839757273752   -2.02698000471293
H           0.73999792891969    0.54953339408976   -1.94190972377534
H           2.12240796263650    0.40067341028426   -1.26910923771128
O           1.25151643777384   -1.30686275816529    1.52152354794993
H           1.87429033030724   -0.60914569985138    1.24857927193373
H           0.48368608677672   -0.83435626728173    1.89518520163050
H           0.78196196477019   -1.87521641321922    0.10600582662146
O           0.38438750580541    2.16881718762874    0.83988558199485
H          -0.12025634250335    1.87372054376970    0.05541927905720
H          -0.02862111835468    1.70279689085863    1.58160065678925
H           1.78916730542124    1.42231346774765    0.59498210698127
N           0.48547253884567   -2.01292400515427   -0.90482177812130
H           1.01937958652094   -1.29409951450426   -1.48092218255020
H          -0.54187639017162   -1.76058427048378   -0.98778356314103
H           0.65412061985344   -2.96067741936806   -1.22134489943518
