    26
        -50.47250301  Gyration_radius:  2.48731932981 Dipole_moment: 2.878
 S          -1.57295550074945   -1.37409580808537   -0.88350261381232
O          -0.84551782934557   -1.42982682545091    0.37007302063602
O          -0.67838474163988   -1.39776517588077   -2.03427500619171
O          -2.52095067008361   -0.27857418322893   -0.95347293054348
O          -2.43092267464396   -2.70393229270108   -0.95460619782370
H          -2.98284207312595   -2.52423968993862   -1.70793489693126
H          -1.84894000318432    1.13832517322784   -0.67163272638429
O           1.52317039310982    0.96543393571881    2.08317406836965
H           1.80317560423808    1.32031604374413    2.92705174727744
O          -1.42650250569584    2.00483835177488   -0.43279490614026
H          -1.96238398847923    2.68243504207424   -0.84757573501793
O           1.76738218866168   -1.57134381994576    1.03405379269554
H           1.82761699703966   -0.74292609618376    1.54418482210263
H           0.81130163859834   -1.74596867045053    0.95553810162094
O           1.30361641724224    1.90608085713591   -0.49657615335473
H           0.33610385804206    2.02972317855184   -0.53135072936983
H           1.50574140132560    1.72521302563460    0.43909562829951
H           1.59929701281815    0.48445135639749   -1.15908928788134
O          -1.06467812668806    0.68279029821884    1.99053996056630
H          -1.34336140101012    1.34460217590774    1.34073275219537
H          -1.10820871077495   -0.16661424596626    1.50700494885199
H           0.52796911749170    0.86776534395803    2.13305490879554
N           1.69946478327972   -0.54855571026567   -1.38586663870709
H           1.89738913598016   -1.04593444684952   -0.46553882150343
H           2.42328056294944   -0.71483683521449   -2.07527888342442
H           0.76013915486709   -0.90736096218303   -1.72500822440492
