    26
        -50.44833783  Gyration_radius:  2.53187711804 Dipole_moment: 7.404
 S           0.96510198620535   -1.13812840083379    0.01284120306831
O          -0.57636810676087   -1.13908838364906   -0.02924224581178
O           1.44208778046965   -0.44674026183015    1.16499894532738
O           1.43720054104678   -0.60338745120957   -1.25020174636536
O           1.29244391822668   -2.62574508908511    0.09855446008564
H           0.93620415628339   -2.99419268622955   -0.79454243454380
H           1.35850511462863    1.05354024482054   -1.23852789154365
O           1.12089904782258    2.00784650945163   -1.19651007496333
H           1.51757465284881    2.42308335516835   -1.96447156473660
O          -1.49180347821180    2.06456748777150    1.85217195642459
H          -1.85909837199513    2.78645201078583    2.36307564634185
O          -2.11744862511797   -0.68166073637240    2.44787974107991
H          -1.95817391485337    0.26788009444348    2.37023352195146
H          -1.62009349814519   -1.08958149384222    1.73415990985494
O           1.12438063053233    2.21082394331717    1.61712967778935
H           1.36160190543203    1.27208079623763    1.70065505842187
H           1.25158872710932    2.41056613599589    0.67912076334130
H          -0.50337552732846    2.15884880172132    1.88529374734014
O          -1.40500746060669    1.14090723745342   -0.64432625311609
H          -0.97136355128913   -0.20300734718850   -0.31111637114609
H          -1.63350205119335    1.51496190141192    0.23539371752583
H          -0.59385642477760    1.60523700979195   -0.92628282170898
N           0.32722248719929   -3.05858322246115   -2.22349780073919
H          -0.68314651257648   -3.04890073463355   -2.17923907080303
H           0.62592852091990   -3.74877479932710   -2.89954297714587
H           0.65249807414007   -2.13900495170992   -2.50400708594765
