    26
        -50.47250235  Gyration_radius:  2.48733616733 Dipole_moment: 2.866
 S          -2.04299990365045    0.85778032197602    0.48562748448423
O          -0.74670336773430    1.49259777948925    0.34245573745019
O          -2.04020549900038   -0.15611975668080    1.53291730564732
O          -2.57896143627176    0.34959019003050   -0.76279366968059
O          -3.03987791649513    1.99350554289326    0.96115430308920
H          -3.87744486846946    1.55378294469959    0.86259075914484
H          -1.58156227945702   -0.65630673092929   -1.49289895420246
O          -0.92311757733828   -1.23088714435230   -1.96456853620098
H          -1.43574210534350   -1.80619315096871   -2.53426351496710
O           2.62958887708464    0.22508501047510   -0.79243660131927
H           3.42606993667700    0.44553191832744   -1.27566685448152
O           1.63697242215879    1.21856085408141    1.57914099403530
H           0.81269997965463    1.58170047884216    1.20550856645404
H           2.16895354041819    0.96101062271409    0.80404412251273
O           0.51146732760647    1.15509207100148   -1.98979988745034
H           0.05358255873036    0.35821803249904   -2.29514986509880
H           0.00422706564384    1.44100301723194   -1.20356535983545
H           1.86840078716044    0.63107223106690   -1.30057658607919
O           1.13147885082936   -2.04483268642117   -0.35630505110625
H           0.65434545609282   -1.58603526786888    1.09598080317940
H           0.38898472635928   -1.85521258134914   -0.96060861752525
H           1.80467053884753   -1.36984236897126   -0.55707679624390
N           0.36959127808883   -1.05035899464546    1.96810250264105
H          -0.63691475261052   -0.73529823770411    1.85109993058290
H           0.96116963403697   -0.16538700908124    1.99034646165718
H           0.48132672698125   -1.60805707635606    2.80674131331316
