    26
        -50.47250225  Gyration_radius:  2.48732302006 Dipole_moment: 2.865
 S           1.63005135961158   -1.26087515086027   -0.94783909884980
O           0.52056376220593   -2.13750903187895   -1.30192675729800
O           1.49091221683706   -0.72521307273657    0.39288658662043
O           1.86362993272767   -0.24398973107859   -1.95550165373507
O           2.93022658984789   -2.16577370322730   -0.92826385085089
H           3.05204996410157   -2.32979105823308   -1.85708919544390
H           0.73870286689538    0.88481195604698   -1.95757403416057
O           0.06459926264637    1.61198483874474   -1.90331314541937
H           0.03859978715141    2.01266507052102   -2.77341782582544
O          -0.98869237773883    1.65343900818010    1.97004572243037
H          -1.09730925094492    2.36600814420203    2.60006070272571
O          -0.34299755575985   -0.99829657479321    2.35470693842208
H          -0.61026720010103   -0.06382172995616    2.42854344208674
H           0.49018768835836   -0.97936957959538    1.84840575759460
O          -2.13242660002666    0.92717321171347   -0.42826605496729
H          -1.41552433029843    1.20603374299393   -1.02882615951568
H          -1.92563655962064   -0.63608858964287   -0.18094686232589
H          -1.89294651786651    1.29056008745594    0.44333896360552
O           1.21739973211752    1.92316939377438    0.61165686847026
H           0.91028857281805    2.11837198789112   -0.28583935147498
H          -0.11648705300125    1.81599594282669    1.50604854428775
H           1.49124137496487    0.98458495791114    0.57631771297540
N          -1.59460461364845   -1.59856805168315    0.12340782994412
H          -0.77620314569940   -1.87847989803995   -0.49131091843240
H          -2.33787458713833   -2.28564218996600    0.07526368841331
H          -1.20748332843926   -1.49138000056972    1.10943216072321
