    26
        -50.47250244  Gyration_radius:  2.48717323106 Dipole_moment: 2.865
 S           1.94107387888714   -1.07550799021632   -0.46814874742612
O           2.10955228903288   -1.05718068878465    0.97963872965838
O           1.39245348550915    0.17156837814492   -0.96567754851326
O           1.21355896226442   -2.24729726303340   -0.91702499132281
O           3.39374372107559   -1.19651251551044   -1.08848602979041
H           3.61294570130084   -2.09480295262735   -0.86638814103412
H          -0.33685224985631   -2.17733483373834   -0.55459160800094
O          -1.95418456569227    1.87129246963037   -0.52145375786711
H          -2.62554662152286    2.40047953550744   -0.95246024736436
O          -1.30993886526317   -2.08916504257864   -0.37712925187807
H          -1.65202324798026   -2.98332557401266   -0.33424978600201
O           0.63623891137331    2.49398908552229    0.18344743121026
H           1.06413856354862    1.82648382585424   -0.38419273771490
H          -0.30067127321696    2.48501465089596   -0.08545021245331
O          -1.90166342573520   -0.10014287098280    1.40192509401588
H          -2.09800143948735    0.63871850473650    0.79813888219838
H          -1.75387173530816   -0.87242184128598    0.82385592221776
H          -0.46591112475734    0.32381909500281    1.95579141106419
O          -1.00886018272901    0.05334669421255   -2.12975213252366
H          -1.62925561442784    1.21492827344814   -1.20413194153699
H          -0.06562089576150    0.09873639478078   -1.87384101167828
H          -1.32310680005821   -0.77801222206575   -1.74512266537537
N           0.52293145164946    0.68832711772953    2.08921461807362
H           0.71958335919877    0.89849050779477    3.06079804065639
H           0.62070721849275    1.54422381110559    1.46343558738770
H           1.19858049946322   -0.03771453952946    1.71185511399911
