    26
        -50.45452899  Gyration_radius:  2.51077792632 Dipole_moment: 5.106
 S           0.98953158454034   -1.18851720944436   -0.64033735556869
O           2.29435326776073   -0.61538623450311   -0.69864843472812
O          -0.04887914008024   -0.26870106349848   -1.31513226232549
O           0.53212656212127   -1.47049027853022    0.70800457742304
O           0.92147628796898   -2.44326645820796   -1.49724994755950
H          -0.07168056441727   -2.61071753519292   -1.70569558806187
H           0.77130952829907   -0.24135118402760    1.77852382539176
O           0.78182915113623    0.59868750860571    2.29248751000194
H           0.85252747184819    0.35451562137838    3.21675061802710
O           0.54767893351195    3.37495321849297   -0.55324784722758
H           0.64660238972236    4.25285780047206   -0.18245648699110
O          -1.55420267869197   -2.59662814321556   -1.98107932158977
H          -1.94380974182547   -2.24715791599653   -1.12180523677130
H          -1.65441432260266   -1.88793002439942   -2.62196372743287
O           2.48240321555603    1.85028873729650    0.43894817633299
H           2.05740373847446    1.55323443702947    1.25661575377944
H           2.61288736486076    1.04031223487398   -0.08228026746871
H           1.36062162705999    2.87359401598506   -0.29902662419924
O          -0.97245635505159    1.41078069810310    0.32442126634896
H          -0.56478597486855    2.23151949782171   -0.04912655336274
H          -0.45196170863004    0.42538730221341   -0.66106518865228
H          -0.48015228550342    1.23624370906247    1.14563515286174
N          -2.29187428865880   -1.52690584850898    0.31802555658295
H          -2.51804571731585   -0.54087302828643    0.26105261502809
H          -1.35565377332241   -1.59944143553914    0.71194319212567
H          -2.94283457192332   -1.96500841233427    0.95670658823444
