    26
        -50.45462875  Gyration_radius:  2.52305806741 Dipole_moment: 3.145
 S          -1.45732916490993   -2.03134416827746    0.55961772206213
O          -2.29055668556742   -0.82852324144115    0.58663244032953
O          -0.25170859676173   -1.87355254453850    1.34347026767073
O          -1.21917327944681   -2.47385549090331   -0.80065936564167
O          -2.30646240835954   -3.16426194000631    1.26050026394319
H          -3.03133918552910   -3.24581130572126    0.65063257148197
H          -0.66717732089460   -1.26573997485268   -1.66952135670214
O          -0.23942778383729   -0.52579819697319   -2.17755817164522
H          -0.37709450288058   -0.73031071218851   -3.10372098453899
O           0.78856511009753    0.44014543780322    2.15455052386206
H           0.40580813072912   -0.45213305388023    2.25565169236566
O          -0.37372540625539    1.97742407065831   -1.15022671099679
H          -0.40459810671997    1.11500463398819   -1.61047481808050
H           0.58914668543222    2.14290045113006   -0.95133917154390
O          -1.30283550027358    1.40888186641189    1.08408286666910
H          -0.96423032728840    1.72982045196483    0.11337520675625
H          -1.79421412615616    0.51254253563785    0.91165585839922
H          -0.45453846309294    1.13734732473575    1.60218237558690
O           1.69783619099498   -0.72952004147307   -0.19190153809688
H           1.38993763030701    0.32421756574844    1.39940557750346
H           1.16948099270366   -1.37170321135055    0.31252736496142
H           1.23422019849972   -0.65586311071841   -1.03911867955797
N           2.20726625676350    2.17350852993471   -0.46240551125577
H           2.44722308977465    1.18750247483610   -0.40908526356821
H           2.36585921894596    2.58411713723888    0.44928702309245
H           2.83906735372753    2.61500452223005   -1.11756018305588
