    26
        -50.45462859  Gyration_radius:  2.52299482467 Dipole_moment: 3.144
 S          -2.50953051422091   -0.29886783789549   -0.41988100563586
O          -1.76844918174516   -1.15010425790709   -1.35156850076201
O          -2.01865022416208    1.06193521455677   -0.42098072366640
O          -2.57501772671473   -0.89804810495633    0.89905224676224
O          -3.99128595761150   -0.24485257330581   -0.96509007062091
H          -4.24978477630084   -1.15457262817825   -0.86698610374698
H          -1.11618855895989   -1.29608321598198    1.38135464029214
O          -0.19074962555662   -1.45784851993382    1.70690635576475
H          -0.26915324598234   -2.10845836552265    2.40629099667233
O           0.33985635985373    1.86814180000797   -1.36062212963380
H          -0.63379398351606    1.83647131525910   -1.29962579295076
O           1.82647093533992   -1.42370138301525   -0.10101495260936
H           2.32827032769181   -0.61784892258769    0.20375670156589
H           1.11885694541663   -1.56058538470346    0.56009534727569
O           0.55355105267228   -0.56664463205525   -2.05641995927663
H          -0.41996381742603   -0.85399142984304   -1.84566600558270
H           0.56129388610093    0.44919636393353   -1.88383315020439
H           1.14678165921792   -1.00265684631579   -1.27041682914438
O           0.06040343910648    1.28759344640384    1.33778692002166
H           0.60736492286111    1.85477176210882   -0.42585181156093
H          -0.81713453327087    1.35182815225129    0.92322330402397
H           0.08750299251769    0.38777806158069    1.69522425981343
N           2.92211717591148    0.88682036470848    0.69534782434007
H           3.68751626150875    0.84483043560716    1.35544538486459
H           2.12360184123789    1.30427654441798    1.16511000117144
H           3.19611435603161    1.50062064136415   -0.06163696717334
