    26
        -50.45462900  Gyration_radius:  2.5233009947 Dipole_moment: 3.147
 S          -0.88546718087040    0.65870667121462    2.31276722869835
O          -0.95530598742016    1.82407966417559    1.43040173279178
O           0.41765377358873    0.03115954579277    2.27947977296002
O          -1.98348550484892   -0.25502610204075    2.06299814860494
O          -1.08331015984431    1.21086305134789    3.77953516381366
H          -1.97600089952138    1.53410329217929    3.72798524169546
H          -2.04967972946489   -0.60447774252907    0.51621655019356
O           2.26812615211126    0.38536999044604    0.39861185910893
H           1.89296597649548    0.39984161311555    1.29978710498176
O          -2.02469241680678   -0.88275059288987   -0.43799828974176
H          -2.89892872964039   -1.22310156819546   -0.63424638523982
O          -0.56160941302533    0.60367772078727   -2.16712561976865
H           0.14840521909995   -0.05177527409327   -2.41278315860531
H          -1.19174706935141    0.11269122788610   -1.60294360493488
O           0.52599445674973   -1.76978337924956    0.22658675414476
H           0.47537015104527   -1.37389405723330    1.11348640040076
H          -0.37703849405903   -1.69712965771342   -0.11611221002409
H           1.94565404775998   -0.46405964188339    0.05287248534136
O           0.59036451894008    2.06068921442077   -0.51497912068042
H          -0.05767697736850    2.05640854985370    0.29380610497372
H           1.37326600786682    1.46126173124272   -0.21502828141084
H           0.07675770397307    1.51035161257840   -1.28497082364127
N           1.39549998669065   -1.18605279540593   -2.54026363238287
H           2.32849056811504   -0.79305528681274   -2.53670431112543
H           1.32179451965159   -1.80723435170878   -3.33532465063660
H           1.28459946013653   -1.74086342528518   -1.69605446951489
