    26
        -50.47229302  Gyration_radius:  2.48028474628 Dipole_moment: 1.996
 S          -1.71523789834235   -1.25572458233399    0.82080713608789
O          -1.90282627592279   -1.45717945921862   -0.60141887485876
O          -1.32455848578964    0.11763913972941    1.12433807026638
O          -0.82557510307665   -2.21886531887641    1.44018589436075
O          -3.13205178356412   -1.48290557083225    1.49379039422935
H          -2.88312579151591   -1.68773451051438    2.38886699989266
H           0.59649991357835   -2.07402973768227    0.71949659144718
O           1.74388982835010    2.10136029742477    0.06419406364382
H           2.39105111618509    2.74120883656612    0.36123635242272
O           1.49408790719756   -1.91771271678220    0.32874132405137
H           1.89464620162039   -2.78359571660306    0.23658593020301
O           1.74318759487495   -0.04697058843912   -1.65688706161996
H           1.90772958238028    0.76438756315417   -1.14319891063014
H           1.71563182105846   -0.76807218727812   -0.99979295295286
O           1.19929616372305    0.36434773445846    1.92855296005121
H           1.56609765112929   -0.46694178563314    1.59745981279143
H           1.57706072955552    1.48710546199527    0.83622616277836
H           0.23400411903472    0.28340957575713    1.77975059472713
O          -0.97353207778091    2.32495420857242   -0.37511884769555
H          -0.96588981896816    1.26959975115508   -1.56644424639072
H          -1.24204875795357    1.66958007634401    0.29752602217897
H          -0.02176626632513    2.46412073099877   -0.22054834750054
N          -0.81811722203029    0.37108017536358   -2.11906602254180
H           0.22334154348231    0.15989727469508   -2.09114978402393
H          -1.17075075469075    0.43482948227567   -3.06668007865110
H          -1.31104392621390   -0.39378811429658   -1.57745319226574
