    26
        -50.44005897  Gyration_radius:  2.53922666302 Dipole_moment: 5.044
 S          -0.88693796138683   -1.23650742501973   -0.64039679272200
O           0.43429432092848   -1.45364641427112   -0.12460479980850
O          -0.93683723968890   -0.22849717280189   -1.70864904210608
O          -1.86698600427256   -0.91319781544761    0.38894692103343
O          -1.39673989770636   -2.58872431250785   -1.27969777382743
H          -2.34312962236195   -2.50166070982495   -1.22353762221968
H          -1.77780095648053    0.48120440752327    1.06958324657441
O           1.76109156032475    2.13897302822311    0.02311262672872
H           2.18555687379649    2.99678184285859    0.08172901165605
O          -1.71291410414841    1.44224292785820    1.35254744776424
H          -2.59487097662225    1.69795530850106    1.62863922953411
O           1.29743026169623   -1.16799180018632    2.36359656218618
H           0.92284854138086   -1.33089972734215    1.47259767784919
H           2.19650231279034   -1.49985139219024    2.33044558728812
O           0.92626745740371    1.46516395308725    2.36486379326247
H           1.12016739894536    0.50658899001764    2.48514105174229
H           1.54151520058227    1.85484748522504    0.96659669866544
H          -0.03450273660417    1.51311059072378    2.26945460299142
O          -0.57526393236241    2.05780496140462   -0.87275048826942
H          -0.71071304373008    1.09748690982394   -1.32421985092180
H          -1.07855649563054    1.97547570334875    0.00128331868338
H           0.44147195296366    2.11382833319625   -0.59965525138988
N           0.99995859628873   -2.11178533380657   -2.93960741208444
H           0.44022411719795   -2.95485289083559   -2.99806444887733
H           0.37405829563233   -1.33512739537827   -3.11928860290215
H           1.27386607113155   -2.01872207225600   -1.96806571079121
