    26
        -50.44005903  Gyration_radius:  2.53930954748 Dipole_moment: 5.043
 S           1.00637386534364   -0.12461656102941   -1.30282975704834
O           0.06875972065408    0.92381090696889   -1.72868215069450
O           0.35690615840385   -1.27801403793840   -0.74896803983357
O           2.02130687299592    0.44750391355855   -0.42693707274910
O           1.79102028541971   -0.57347604924901   -2.59891995921720
H           2.47743874084707    0.08293989437067   -2.66495670183953
H           1.54688531543638    1.18855293764494    0.85425988890701
O          -2.38302709042897    0.37252421558591    1.36416162893146
H          -3.10787042598364    0.68973091186380    1.90583088134373
O           1.13641985028783    1.74935704326527    1.57878197975145
H           1.78467063909349    2.42270582099378    1.79295657684202
O           0.65331484732954   -2.33125034343941    1.66377670823785
H           0.13736424915487   -3.13852456027454    1.62278168300135
H           0.62668762976578   -1.95465807773182    0.75930099962566
O          -0.40027012514625   -0.22382111270005    2.89660943467686
H          -1.66491507598327    0.04786434052028    1.99499528264630
H          -0.00788867256543   -1.06296235253201    2.56080496314031
H           0.24949442572706    0.45781001240186    2.67838973672233
O          -0.99197717262481    2.07699237259138    0.16897536807043
H          -0.60233126956226    1.61008243829388   -0.71133560063031
H          -1.65849427241235    1.38317720074326    0.59935585083832
H          -0.19463093465718    2.09787455182397    0.79170990315147
N          -0.95766606302080   -1.31606090323702   -3.38464845108868
H          -0.96176425689269   -0.31020074279817   -3.26022261580519
H          -0.14019986462397   -1.53588510250365   -3.94220171276211
H          -0.78560738672261   -1.70145670762865   -2.46298886410907
