    26
        -50.45028646  Gyration_radius:  2.64101894013 Dipole_moment: 5.322
 S           0.14145278729531   -1.43874703472935   -0.62806344156020
O          -0.36656478854700   -1.54784292104412    0.70151383918353
O           1.58225605915997   -0.91829951597635   -0.64056876856867
O          -0.65187194904045   -0.60337793201627   -1.51001205628009
O           0.28559897518849   -2.83368515656575   -1.24878466013660
H           0.60989741403910   -2.63383400168430   -2.19568720447957
H          -1.00168635464031    0.89532741326532   -0.90502722207268
O          -1.03180288119799    1.81624317217314   -0.55918678580043
H          -1.56446763684393    2.32303787598633   -1.17439691200187
O           1.16514787107245    1.45529199930866    2.72333011588934
H           1.46242469745898    2.22357274007662    3.21294470721401
O          -2.27103522286008   -0.77429255886979    2.45160665928256
H          -1.99421746825869   -1.19548679708069    3.26752086091030
H          -1.65471907488414   -1.09681368500530    1.76987125338166
O           1.59786814442924    1.44859759432558    0.13477314455816
H           1.64532338713867    0.08338781893738   -0.29855841109667
H           0.72027979673155    1.76979113517336   -0.14017873618233
H           1.55894841376074    1.41025477997158    1.12918779574372
O          -1.40027441375771    1.77617042682313    2.23293240864658
H          -1.38497696084951    1.88034390028686    1.27029033620982
H          -1.83105898095879    0.91043536785109    2.38765042231448
H           0.17902678562540    1.55046531646663    2.63369757049064
N           1.01137058138959   -1.81913815718940   -3.49044977494753
H           1.95657520255634   -1.47184095553096   -3.39622481680603
H           0.36666514817376   -1.06044012997482   -3.29228135970719
H           0.86984047781873   -2.14912070498325   -4.43589897416111
