    26
        -50.44071528  Gyration_radius:  2.48847901851 Dipole_moment: 3.251
 S          -1.44629839893118   -1.13402851595133   -1.30027013250517
O          -0.60775867038298   -2.11121398272968   -0.65782729816958
O          -0.71634391895931   -0.18730989160667   -2.14605275031205
O          -2.32765154972420   -0.42183712263745   -0.38601211976731
O          -2.38574144132509   -1.93723242372025   -2.28995578334916
H          -2.87502539054641   -1.24552161901341   -2.72352444817835
H          -1.84120273272481    0.84873014477740    0.33736655784521
O           2.28910836015692    1.50598649602135    0.74286479043022
H           2.49875580897717    2.38989375228280    1.04969856900409
O          -1.47933945816390    1.72075478632251    0.68584343411918
H          -2.21449007512487    2.33575511397717    0.66998558853422
O          -0.21906151628372   -1.92791874200973    1.97053481337746
H           0.33520193115615   -2.68728942152057    2.15670501158917
H          -0.45610316759910   -1.99346397576949    1.02314584095187
O           0.47214308036103    0.63832210721572    2.41414769051990
H           0.28246266322895   -0.31952896466081    2.34613789922369
H           1.70159396718072    1.10019494353753    1.43627250657246
H          -0.31874332518684    1.06874375552135    2.06493565633970
O           0.44689710590928    1.70807797273361   -1.01151640203632
H           1.29437920317375    1.42461144152264   -0.48024705007458
H           0.10207174383795    0.87923936794598   -1.54624161639649
H          -0.28109329174516    1.85389503962737   -0.32105787886037
N           1.85390659066705   -0.61655299740787   -0.96223673298116
H           1.08513836086781   -1.27249426399428   -0.86767685779034
H           2.57926725055326   -0.88579373714688   -0.30996556211406
H           2.22792686062914   -0.73401926331874   -1.89505373596230
