    26
        -50.44071530  Gyration_radius:  2.48842558628 Dipole_moment: 3.255
 S          -0.21469506291088   -1.58294540787152   -1.58676983934761
O          -0.63206458198299   -2.15901710029959   -0.30679659128147
O           1.15789969278635   -1.15199352479469   -1.61458293680870
O          -1.16090281646110   -0.56314209645978   -2.01628592040852
O          -0.32962021377991   -2.76621213460999   -2.63261912872122
H          -1.23403690719968   -3.04644569402954   -2.53574308756338
H          -1.73240245177433    0.45135353105329   -1.00727628616771
O           0.35427652634291    1.15854163912621    2.56988308265052
H          -0.15521031390665    1.66891384252085    3.20179809129433
O          -2.13091401395496    1.00446415137867   -0.26691580000614
H          -3.06047175354832    1.09972939231399   -0.48080350966307
O           1.66885567788546    1.46182186180812   -1.65084946947984
H           1.42466707955160    0.51611679591021   -1.71378279050594
H           2.62571766220247    1.49067390071542   -1.69741989048788
O          -1.20753225432774   -0.57415915782007    1.53455017892291
H          -0.86171197193444   -1.29789720403728    0.86499219624447
H          -0.38462142076954   -0.08921149880633    1.94494367530339
H          -1.65782062790874    0.10244325943575    0.92819634112263
O           0.18003929724300    2.51052925097495    0.33568176909121
H          -0.69391496304132    2.24055607931013    0.02594731672066
H           0.42015794277954    1.71526400874858    1.74766448290607
H           0.79332348535834    2.21614716073879   -0.36797622481172
N           1.46270637696143   -0.99936761422153    1.26132647727774
H           1.63602815144449   -1.91700790976694    1.65082087408161
H           2.21888648422614   -0.39687551307978    1.56010588402368
H           1.51336098671512   -1.09227999824143    0.25191111561301
