    26
        -50.44071533  Gyration_radius:  2.4885418148 Dipole_moment: 3.252
 S          -1.86812935179700   -0.11758778673589    1.25309948813113
O          -0.86938936148077   -0.90698866163832    1.92391216971050
O          -2.19147550700312   -0.58764864472792   -0.09559176591924
O          -1.57790279762569    1.30910357555394    1.23689790626174
O          -3.20365871189438   -0.29104872962164    2.08549969394747
H          -3.83715433784252    0.20202022328024    1.57412569147488
H          -0.71575098749390    1.92107776303943    0.11621003224886
O          -0.23390119030653    2.25059027673945   -0.70362263778734
H          -0.64919415136067    3.08260956867589   -0.93639371064832
O           1.84921294351444   -0.58010624509674   -2.07845330961877
H           2.21198651526203   -0.14981107524725   -2.85475380274612
O           1.55144354908176    0.14447709306999    2.28276991859466
H           2.01195550194867   -0.54291759145015    2.76654273889465
H           0.62667192327723   -0.16322136198015    2.19295817253963
O           2.28194458421819    1.10798485150989   -0.12581167962911
H           2.11913060166864   -0.02458549664228   -1.29808665057192
H           1.55851764330839    1.73326195425602   -0.26136042385504
H           2.12863495322770    0.74344424956699    0.76943591507491
O          -0.62408862550707    0.03339282397760   -1.93716424343051
H           0.28305859701532   -0.47363435759439   -1.90652116758540
H          -1.25331083827149   -0.37549194387760   -1.21023379873169
H          -0.43672767631276    0.96402894793966   -1.58066835987553
N           0.20184658365225   -2.10899696188360   -0.48336632865501
H           1.14552160321593   -2.45917337069409   -0.37874649778488
H          -0.37595757243449   -2.88375110624088   -0.78291212942755
H          -0.13328389006486   -1.82702802418883    0.43223477938878
