    26
        -50.46365461  Gyration_radius:  2.4168521543 Dipole_moment: 4.551
 S          -1.55651552413196   -0.45970854245226   -0.34871038533967
O          -2.50304642701333   -0.18370196217764    0.83168662562441
O          -0.33507124775322   -1.07547776306106    0.16334384828332
O          -1.23725166555935    0.81730126345926   -1.00226373316401
O          -2.22725676913173   -1.36869820756871   -1.27275772480278
H          -1.06069663789569   -2.05133156524826   -1.87457701528445
H          -0.48406613454647    1.93408959193807   -0.13756456396198
O           0.04876212883180    2.52941485778549    0.45242601665366
H          -0.20074933092386    3.42559478447010    0.22334383574727
O           1.57890682901230   -0.03968702547979    2.92779867494923
H           2.16074436314743    0.55089805709267    3.40890221988572
O           0.90511332308467    0.05454838891255   -2.37288092685536
H           0.07604544983668    0.46759154012208   -2.04369720743292
H           1.53470122594324    0.17581281839456   -1.63519611232292
O           1.82295737566616    0.37991774012121    0.20125858980171
H           1.85936145630516   -0.01399756704151    1.99398291701487
H           1.03325964861917   -0.21385126371151    0.23765888621577
H           1.46294759162333    1.27391546920760    0.29971944122914
O          -0.93098642229436    0.97785624438187    2.49170328237216
H          -1.94279376339597    0.23814295388297    1.56183888065274
H          -0.15817784168972    0.43340567883307    2.74309375889527
H          -0.57333959661632    1.67824656697932    1.91692493712571
N          -0.05045920127547   -2.35734960132951   -2.15680537289378
H          -0.02890953529736   -3.00770221296096   -2.93590698257667
H           0.36034695745417   -2.74820192976166   -1.31024279394683
H           0.44617373800795   -1.41702829478219   -2.36307912585774
