    26
        -50.46365465  Gyration_radius:  2.41679170578 Dipole_moment: 4.551
 S          -0.72202480280821   -1.28265511035452   -0.76724745012571
O          -0.37760804235838    0.10435519319893   -1.06874937311555
O          -2.22364238864252   -1.35983401209170   -0.44365676863471
O           0.03462472031420   -1.74254383296776    0.40571808363444
O          -0.45791783099376   -2.12862358497654   -1.92676948378212
H           0.71637408499210   -1.43736674494453   -2.50372799683477
H          -0.12401920533553   -0.92005537823101    1.76980761353078
O          -1.28923253694961    2.97227660147533    0.75259848111531
H          -1.27663587476082    3.56153538320625    1.50851281345510
O          -0.22620972493435   -0.30399962259708    2.54206171228629
H          -0.17077993517413   -0.84915893490685    3.32791905813150
O           2.41576412776812   -0.75283905247625   -0.22583301645220
H           1.65484008690832   -1.28543509576601    0.09631055009828
H           2.24200851171953    0.14072320911877    0.12992789005651
O           1.00111247744641    1.41616243813342    0.70751601634170
H           0.73240751252036    0.98489735249767    1.53230253592888
H           0.45478275774401    0.98129399492806    0.00754504917860
H          -0.38578022542064    2.61765830031346    0.65566557918441
O          -2.48581620480425    0.55330969461506    1.24378317829293
H          -2.42461767374180   -0.59647596653809    0.19032478678830
H          -1.78813048438999    0.30984601684807    1.87837446871712
H          -2.21704480475991    1.42468684619184    0.88972402456190
N           1.55775856940277   -0.76395466343430   -2.68347052138890
H           1.14181474308549    0.15280642892303   -2.84045724147993
H           2.15280982010759   -1.05797805626303   -3.45146239224985
H           2.06516233358043   -0.73863138345629   -1.72671759731899
