    26
        -50.46365465  Gyration_radius:  2.41679646113 Dipole_moment: 4.551
 S          -1.44456627374982    0.38120100456834   -0.72335637177964
O          -2.37693180953520    1.13292668025808    0.24156929537590
O          -0.85397568321330   -0.75277693822732   -0.01725921105608
O          -0.38717722597371    1.30102236635934   -1.16578336266321
O          -2.23724894384481   -0.08976349179618   -1.85466167914074
H          -1.46118754033601   -1.28635586323966   -2.24890064580642
H           0.59135233390293    1.90823457277437   -0.05403427516155
O           1.19303132627004    2.16868568530563    0.69196930743797
H           1.48585652864196    3.06043119972592    0.50009023716695
O           0.60257776225002   -0.74718571814651    3.18461925923910
H           1.26793881561968   -0.51925131936056    3.83588538647803
O           1.34493008242213   -0.48055211472053   -2.10100740749945
H           1.75599409903233   -0.67305386200008   -1.23546602043714
H           0.78073091237721    0.30457058292208   -1.92303760498580
O           1.66200458787515   -0.58948982933533    0.63065001344349
H           1.78367371681277    0.36612886576280    0.73311512411274
H           1.07084004051752   -0.89427178504781    2.34174905220530
H           0.69881824017384   -0.70033996130156    0.43694311698771
O          -0.88106480371155    1.38755848110658    2.30899018898601
H          -1.87273862102695    1.23444296756064    1.11368224421614
H          -0.56704596515835    0.53447650663957    2.67023830948512
H          -0.09761670277463    1.79347535668025    1.89642603287016
N          -0.70398314298123   -2.06975895226356   -2.33048977600677
H           0.22746065145913   -1.51661923414009   -2.33239924183855
H          -0.82496950019485   -2.66459512265057   -3.14399201764541
H          -0.75670288486747   -2.58914006743524   -1.45553993400842
