    26
        -50.44586467  Gyration_radius:  2.48382362129 Dipole_moment: 6.905
 S           0.78366032190807   -0.85288576703477   -0.57078617520411
O           0.18995352032803   -1.46195468670909    0.58307429104454
O           1.11406066117169    0.57580289507459   -0.35984358975318
O          -0.07760607716174   -0.94234563318080   -1.75620440660844
O           2.11805327172961   -1.57444850274643   -0.89991545627572
H           2.41786546420224   -1.13716776817470   -1.72589551547548
H          -1.50444131219563   -0.36485030797977   -1.44993112796277
O          -2.32121140926947    0.15884454838384   -1.20308624177506
H          -2.80300295141720    0.30159106418110   -2.02051050705773
O          -1.61770246145923    1.45013386006388    2.36546030797040
H          -2.38809362472758    1.88242480356983    2.73842525978932
O           2.10180742449622    0.05405164854216   -2.96117271554118
H           1.18052582312060   -0.24759994965141   -2.89728351140656
H           2.15290703892320    0.85676216850595   -2.43258944957991
O          -0.90060300620842    1.93913650214011    0.00860313820494
H          -1.14593621564339    1.84098398715577    1.02174366364463
H           0.03468955954406    1.41390492763084   -0.12084443698438
H          -1.56186345413964    1.35878204975049   -0.49183291947933
O          -2.25895212345208   -0.89861361771352    1.46125836058385
H          -1.37159509395999   -1.26751333769071    1.27988442781575
H          -1.86966858271963    0.49875558189116    2.18338126179350
H          -2.64333548257859   -0.74086465552443    0.59059840585632
N           2.72333740330580   -0.61482568650714    1.90740333306135
H           1.87231846418719   -1.13318692666823    2.09417932055251
H           3.31987189204868   -1.23390099110793    1.37025879056757
H           2.45496094992255    0.13898381383142    1.28562549224052
