    26
        -50.44586462  Gyration_radius:  2.48389220369 Dipole_moment: 6.904
 S          -1.04446287447175   -0.26519740367655   -0.71146664123246
O          -0.14168953275879   -1.37695867174357   -0.77326342127163
O          -0.34647338523831    1.04161820452790   -0.70486818103169
O          -1.91242124690137   -0.31439824907090    0.47140175439131
O          -1.95580041541987   -0.27652386548342   -1.96796725389296
H          -2.57123681540681    0.47193831626016   -1.81176172179844
H          -1.05833558998640   -0.45707494452335    1.78038616175385
O           3.06825307043275   -0.08482963321215    0.94592081095109
H           3.76125575812014   -0.12045140265217    1.60771348170414
O          -0.42654631058271   -0.39249166188994    2.55430591987175
H          -0.96724164831799   -0.20528619453708    3.32455539604002
O          -3.08367424380374    1.76314903737695   -0.75624550289766
H          -2.29951164496866    2.32046281440989   -0.78521586791394
H          -2.92958492013723    1.12505041236282   -0.04007407874098
O           1.45598885235011   -2.10124839857806    1.22898185200972
H           0.85099825759547   -1.84698545287784    1.93610830699190
H           0.92884540848033   -2.02395509349394    0.40890892297118
H           2.57479459124241   -0.95473049595434    0.98528428307572
O           1.03047966366118    1.33689688686628    1.31259939095159
H           0.51100518756643    0.72863302217410    1.93286063383313
H           1.93770758204951    0.84768384912402    1.12869407380408
H           0.47244620506570    1.28085840730494    0.38913595504718
N           0.75766599267750   -0.06370954930707   -3.29484594983073
H           0.91232396182846   -0.90211207812434   -2.74626658139824
H          -0.11451675182393   -0.20700425721842   -3.79123121412809
H           0.58973082866199    0.67666642180902   -2.62365050919691
