    26
        -50.45856963  Gyration_radius:  2.54478842679 Dipole_moment: 7.094
 S           1.30536111019222   -0.14131630730159   -0.61821026606419
O           0.58758086508202   -0.99296038148812    0.32851086291625
O           2.14299746963268    0.88472119831880    0.14014456479630
O           0.32565643102583    0.56671113943249   -1.46921834907353
O           2.21826566703114   -0.91941638071330   -1.45245417098509
H           1.32404331367558   -1.42163752219268   -2.53405904444713
H          -0.84503239489847    1.29935669961766   -0.63590235593765
O          -1.50467023552291    1.78806476101591   -0.08064866956630
H          -1.89557979248663    2.45176399376961   -0.65080199534252
O          -0.08483834240565    1.16802504149132    3.68777460605126
H          -0.69562106299690    1.56346648749873    4.31103607156146
O          -0.67499972668994   -2.86076351322666   -1.00375034614772
H          -0.40734512901918   -3.70300201487535   -0.63204764864915
H          -0.26678676511304   -2.17172512791595   -0.42011999515485
O           0.65444221103984    2.44582409850587    1.45924619072932
H           1.56815687857828    1.53848677240927    0.69336491512258
H          -0.20015037435985    2.34507852598982    0.99842289283622
H           0.52738054076461    2.03927222556645    2.34747691279241
O          -1.46485308456414   -0.23134435042158    1.89226870938401
H          -0.71406065390006   -0.62599085249596    1.40993038495343
H          -0.61268460499923    0.53822442210325    3.14030559078941
H          -1.80244201790076    0.44944788353856    1.29606387324775
N           0.34894392116015   -1.51320577498821   -3.01297654677122
H           0.35418086946877   -1.70508403128639   -4.00841390639803
H          -0.01531406569405   -0.57220378180374   -2.75397678490550
H          -0.17263098710382   -2.21979320054567   -2.43196548574065
