    26
        -50.45856948  Gyration_radius:  2.54482467686 Dipole_moment: 7.105
 S           1.13764380823020   -0.03133077341634   -0.89963872828414
O           0.97772257016715   -0.51612262760215    0.47015540197443
O           1.61084098518271    1.41968047172099   -0.88351195920636
O          -0.16509347855438   -0.10855153507110   -1.59403031252234
O           2.13723105388313   -0.80824858415080   -1.62912064857968
H           1.35409041158987   -1.98366794184840   -2.10456940892229
H          -1.38018323262041    0.55562057972758   -0.76686358416318
O          -2.08122242698360    1.03297138776390   -0.25412657013915
H          -2.79094620573555    1.21179108980759   -0.87271556336196
O           0.05249120454086    2.66044924537219    2.80990445065340
H          -0.55651171553301    3.10527712164582    3.40073686094212
O           0.35851086044304   -3.05956400372673    0.39764561441425
H           0.54991721146585   -2.09529219038790    0.52260455898600
H           0.99068351949903   -3.52037361373710    0.95187887793663
O          -0.14291645249453    2.91469707110503    0.15632091794397
H           0.04550206001607    2.94779902900982    1.12268599384769
H           0.92001746217179    2.06005484427513   -0.46290902687968
H          -0.94965072755307    2.37308484071284    0.06344954424198
O          -0.92696018442488    0.26080498574001    2.20376788510230
H          -0.16957047480260   -0.07932526017330    1.69113221274753
H          -0.26226628972650    1.72752656844933    2.73440394536685
H          -1.59758923825639    0.46045388884124    1.53792120647130
N           0.43171904577415   -2.55998540912612   -2.18056257830655
H           0.35287506480944   -3.17788342123076   -2.98039725844195
H          -0.22843651529386   -1.75416509280793   -2.18765458484196
H           0.33210168420564   -3.03570067089383   -1.24650726697672
