    26
        -50.45856958  Gyration_radius:  2.54467911253 Dipole_moment: 7.098
 S          -0.36317792268656   -1.22353183833059   -0.69121132692760
O           0.77579576002393   -0.90014840863989    0.16622264255467
O          -0.02815157690380   -0.89450097025354   -2.14351277287663
O          -1.52905944275930   -0.41908480123200   -0.26844083235713
O          -0.69147146293211   -2.64591241136996   -0.63039646166203
H          -1.54381092849918   -2.73178415700282    0.58969209782289
H          -1.20851493192231    1.15442949887008   -0.11471545435646
O          -0.98281956825499    2.11929004519533   -0.09839021204513
H          -1.81683687461412    2.59025674218094   -0.12949726064548
O           2.81640737086900    2.13818281906375   -1.56992116891443
H           3.14684906584810    3.03703156177156   -1.54280957668868
O           0.23772343223095   -1.66248749001361    2.61276674277346
H           0.51342455909188   -1.30733841771014    1.72958927708913
H           0.95624210425866   -2.23014723224698    2.89666346299753
O           0.34466047395595    1.59013804576492   -2.42721597906590
H           1.30347984827701    1.75543568060124   -2.27302533926128
H           0.13337265879903    0.11256198689284   -2.29699839730914
H          -0.11452418702326    1.95275893544821   -1.64587833866448
O           1.65218077532971    1.57378189667060    0.75641582611867
H           0.79287637622293    2.00862658336955    0.68288524038889
H           1.46137646225723    0.63030078616364    0.59660367160762
H           2.53646267952737    1.91532118700190   -0.64959519063708
N          -2.03601562515182   -2.28620353966629    1.45427407785673
H          -1.26730557232677   -2.14417878511824    2.15984419295619
H          -2.85031932367310   -2.77526343383819    1.80856185093154
H          -2.23884416994010   -1.35753428357449    1.02808920831724
