    26
        -50.45856927  Gyration_radius:  2.54488253063 Dipole_moment: 7.104
 S          -0.87832683027045   -1.06496338663980   -0.44712699210325
O          -2.04124844854899   -0.96653595454536    0.53646798559326
O           0.38737418066206   -1.10186580335968    0.28309935171188
O          -0.89062499957253    0.11948655798081   -1.33173899934256
O          -1.07596903504302   -2.27805564667924   -1.23712510096115
H          -0.31293943574442   -1.98417149275107   -2.48335155526736
H          -0.48496632438957    1.48957638696870   -0.58279080274152
O          -0.29604898161140    2.31494504877404   -0.06786989543411
H          -0.61204902797080    3.04373543876457   -0.60400099132720
O          -0.13137810407038    0.92396345795184    3.75679945104152
H           0.10233988229214    1.65180801132649    4.33427689062592
O           2.33802541359123   -1.46335042302984   -1.42680285485121
H           2.84198843251400   -2.22101194121469   -1.12514587728394
H           1.67307782291934   -1.28610911252790   -0.71376413181376
O           1.48424246582130    0.94471274429397    1.64149458480792
H           1.18283439463514    0.11784836189800    1.22013297869391
H           1.11268764705180    1.64485343744171    1.08952247288321
H           0.57922644198658    0.86987480190533    3.07328353076982
O          -1.94359243031635    1.21330601810842    1.81371499381721
H          -2.03275826416937   -0.08880158046024    1.07817737611016
H          -1.40771132539243    1.04603527171105    2.62325817728035
H          -1.38118560273580    1.76127299110894    1.23392353757394
N           0.31508402169750   -1.33986987698014   -3.09903885847127
H           1.27950178940879   -1.42629241282474   -2.68594376917195
H          -0.07616288319513   -0.42869418972620   -2.77916695996494
H           0.26857918044683   -1.49169671749492   -4.10028455217150
