    26
        -50.45856931  Gyration_radius:  2.54484890113 Dipole_moment: 7.085
 S          -0.08597969078798   -1.36417658708653    0.48882488899689
O          -0.55496922659281   -1.17102127549699    1.92837040651963
O           1.06575397593066   -0.50420779065418    0.22259864721121
O          -1.18372664831033   -0.99866992900408   -0.43146264805272
O           0.25106246620306   -2.77629098053628    0.32511940991946
H           0.10330616975162   -2.97895932517934   -1.14516709161711
H          -1.50525771753638    0.58168935173060   -0.46408942363176
O          -1.71055705913438    1.54920451540970   -0.40141584306544
H          -2.59704654282937    1.65827395808100   -0.74885169938652
O           0.76804772114265    2.76184332495593    2.59642157359031
H           0.68040744738278    3.71083986841440    2.69407368637247
O           1.96666769290131   -1.01489633270898   -2.18311647064012
H           1.67573686066206   -0.72674784358658   -1.28073536230696
H           2.89877695266883   -1.22245592323080   -2.09793946636307
O          -1.37466198490772    1.19390176337331    2.28635512250246
H          -1.57329607887478    1.47710299332256    1.37348950347293
H          -0.89381433898414   -0.21451543201384    2.11288807078046
H          -0.59746075517156    1.72965181252379    2.56795320534052
O           1.01163714755696    2.17691585200948    0.01096320058483
H           1.01152099243489    2.59907891939946    1.65342768147720
H           1.17447103232185    1.21860498307253    0.09602023727287
H           0.10442239800003    2.23901686133053   -0.31457326878441
N          -0.11566082928672   -2.61625946808466   -2.14934249234533
H           0.74723634007969   -2.08739816156591   -2.44034377824816
H          -0.83426962051435   -1.91085604414729   -1.88183232203149
H          -0.43234670411043   -3.30966913032535   -2.81763576757624
