    26
        -50.45054786  Gyration_radius:  2.52000963451 Dipole_moment: 7.520
 S           0.66487219551163   -1.12947269616176   -0.46278951241168
O          -0.74911919659681   -1.29518434775351   -0.60598438984593
O           1.02720436387897   -0.56745231950271    0.91725812044935
O           1.26201087111171   -0.26773408906001   -1.46487030314563
O           1.36218604368606   -2.48513411460214   -0.47333815152058
H           2.35905865200532   -2.24110604899357   -0.38813264907374
H           0.37317312832508    1.11930130564960   -1.63894328364414
O          -0.15694753555131    1.94626062400354   -1.57318754600282
H           0.23472609544746    2.57208070318336   -2.18513011932055
O          -2.67359740652613    1.16624890933782    1.45865876229301
H          -3.45197601638679    1.65021237627868    1.73587355984122
O          -1.83200358756362   -1.54004669398926    2.00172117357568
H          -1.49717674535057   -1.65587515882344    1.10574466444567
H          -2.19341232349471   -0.64568814172783    2.02920704920854
O          -2.60452305049995    0.64952422111214   -1.13027437369496
H          -2.78390897542622    0.96711760041670    0.49314604351174
H          -1.92493343742197    1.25805887422386   -1.45400651204444
H          -2.15333302095011   -0.20677627991484   -1.06180202551904
O          -0.06296604416520    1.68297490555627    1.15539099491822
H          -0.11981788147750    1.96895472735485    0.22519425315492
H          -0.98873780107370    1.52595457847346    1.44227831761335
H           0.58275543996621    0.35885550038277    1.09958425591863
N           3.66464924846710   -1.39943271420882   -0.31049027253012
H           3.77464767733706   -1.05656168877410    0.63475698747036
H           3.33179166022302   -0.64114852165525   -0.89640836156540
H           4.55537765669034   -1.73393148066557   -0.65345669209258
