    26
        -50.46357510  Gyration_radius:  2.63945044407 Dipole_moment: 1.777
 S          -0.26515329526577   -1.23901364154268   -1.22292129964348
O          -0.31187775809542    0.18269077892567   -1.51686855573993
O          -1.40781835789688   -1.65070291217407   -0.41575849252939
O           0.99663906820593   -1.63401221973985   -0.59381594741905
O          -0.34808188027833   -1.98082075912506   -2.59631941277810
H          -0.07576331756857   -2.90000637245724   -2.39959134336380
H           1.20516984324447   -0.76262042953453    0.76284564004152
O          -0.03222295360291    3.47058629684267    0.83573390403607
H           0.46686782847117    4.25333764946231    1.07006248032987
O           1.35697789320492   -0.20358750732998    1.56332297104078
H           1.79730002449565   -0.76924848086351    2.19981385094065
O           0.88870132804541   -4.08186764564246   -1.55541938276345
H           1.06454001201079   -3.30716429146185   -0.98459238747657
H           1.71981585182557   -4.29843947553159   -1.98426687772295
O          -0.75244964714591    1.37779454626825    2.31754107564137
H           0.01476976162412    0.79234029896851    2.16988842847159
H          -0.48608794235384    2.25118777590173    1.95330061087718
H          -1.69910487368051    0.97511449693111    1.18933094875625
O           1.55798743078275    1.78746701983267   -0.44236802291025
H           0.56883341974576    2.92135042995986    0.27011970261907
H           1.81639141166066    1.20273687608190    0.28209627932258
H           0.96222204707047    1.24667228896297   -0.99493672619969
N          -2.18811273070714    0.68875392921990    0.26570695732155
H          -3.15336219021016    0.99591057837284    0.22207054712450
H          -2.07269422197762   -0.36372805139708    0.12647721073672
H          -1.62348674162898    1.04526883110191   -0.52145215872025
