    26
        -50.46357510  Gyration_radius:  2.63945661136 Dipole_moment: 1.778
 S          -0.72462926713871    1.45704543785281    0.67298220723622
O          -0.57706276783867    1.23614174738182   -0.75504834476401
O           0.56717664678041    1.68624453676201    1.30966517732737
O          -1.45268980834354    0.36973394278743    1.32995044272201
O          -1.58366804301449    2.75264390018249    0.83688943379693
H          -1.86880838485717    2.74547834619531    1.77306465325679
H          -0.67861809383420   -1.03131632093334    1.04495214658603
O          -0.23605221596202   -1.88983120935119    0.83654994171638
H          -0.33659151322818   -2.43457016691968    1.61894026518776
O           1.17764287082495   -1.72352759970229   -2.89595685557911
H           1.06462451984288   -2.44905778994829   -3.51041570583542
O          -2.39043857941331    1.93580865062424    3.22635618291889
H          -2.05548595700062    1.16045388418472    2.73285257022263
H          -3.34076446188781    1.82183310525858    3.30028885001307
O          -1.14829228805741   -1.19338493534649   -1.75386684072183
H           0.26856897681932   -1.49127227470916   -2.57582725178461
H          -1.05718915286828   -1.68717823250865   -0.92839270980322
H          -1.09151109533006   -0.25600188292844   -1.48776380521172
O           2.18728242457286   -1.69262824632315   -0.43138951061662
H           1.37587174151781   -1.85353494665087    0.08718728790695
H           1.93771328075713   -1.87090092037729   -1.36538708264707
H           2.22429667993509   -0.16916278271836   -0.52551132378774
N           2.03444453630983    0.89252623281631   -0.63031187961848
H           1.65791452757782    1.26847328467156    0.29557109189894
H           1.20518191582136    1.01326604301791   -1.23303588842037
H           2.84108351800810    1.40271822671205   -0.97234303197689
