    26
        -50.45038888  Gyration_radius:  2.64364358 Dipole_moment: 6.843
 S          -0.92310268303275   -0.06665144347837   -1.34128112973386
O           0.31005106277852    0.58779011731953   -1.63246794409697
O          -1.65128267174184    0.62390818981250   -0.17602422013757
O          -0.80055361816226   -1.47680248139608   -1.02470587994624
O          -1.91052838550139    0.11267387863720   -2.49777580318103
H          -2.72135299879777   -0.43859378097772   -2.20389656075121
H           0.46011382625392   -1.72071347948125    0.02207337764055
O           1.46662440468777    2.21740290983440    1.83243728384059
H           1.12887524260874    3.10105650908443    1.98023320142059
O           1.09095988785898   -1.78463022943623    0.77441516877327
H           1.22365892842911   -2.71984536845217    0.94072260391231
O           3.35891296460419   -0.13266977847367    0.78589817881978
H           2.61866663360389   -0.75242374453693    0.69520936005093
H           3.19296076689165    0.36446023482168    1.59158058809992
O          -0.30676923413259    0.27856199394073    1.89950861817016
H          -1.12346663117476    0.50928972005427    0.72835640790869
H           0.22481474813867   -0.50893733086910    1.68589826257201
H           0.33929057319064    1.03341392398551    1.94081574889709
O           2.39245597043094    2.01586091790497   -0.60668923531876
H           2.98117971553723    1.27129047442046   -0.38555967808644
H           1.66804473432544    1.62079201850023   -1.11651275861813
H           1.82379336179449    2.21141533267151    0.89833627611527
N          -3.62981482772846   -1.41878080580337   -1.37358516030025
H          -4.08103443479078   -0.93202960836510   -0.61056132981771
H          -2.84171462498199   -1.94235144193860   -1.00504128158822
H          -4.29078272107517   -2.05348669772779   -1.80138409464863
