    26
        -50.45038893  Gyration_radius:  2.64360727416 Dipole_moment: 6.842
 S           1.19220228444498    0.65167483694255    0.89981724203012
O          -0.03295959231385    0.66958802326948    1.62960389900445
O           1.03751614571706    1.36516345514584   -0.45369317262403
O           1.73106293870918   -0.67218330057180    0.65324861313530
O           2.24735511032371    1.50923186190290    1.60402537763367
H           3.08328018857049    1.37430903082589    1.02899964225063
H           0.52732299580302   -1.69444885215185    0.15257895048945
O          -0.17795620921580   -2.20121932986876   -0.30981013689110
H           0.15215700301183   -3.09568358551926   -0.41404337568370
O          -2.90115163406950    0.82282009335012   -1.15406842157795
H          -3.14272224910455    1.71087340015462   -1.41811733817969
O          -2.83874985584638   -1.89305272280883    0.52604783503187
H          -3.22340932411550   -1.54656480771293   -0.28377821730858
H          -1.90049471134090   -2.04514654456638    0.33423497295830
O          -0.50693302402174    0.01484879321907   -1.87736051375102
H          -0.44868894206334   -0.87242330711998   -1.48024870424666
H          -1.42536355893526    0.33792273766660   -1.67486248918164
H           0.39166999916694    0.83554138981520   -1.09551239821138
O          -2.75238610051804    0.67993152045784    1.45445966024906
H          -2.88329953896054    0.82763250860938   -0.15418294469476
H          -2.90009742724591   -0.28332643267395    1.46984781723533
H          -1.81058228496002    0.79297831856679    1.65708860334588
N           4.04982163812683    0.81619736856178   -0.08012463775567
H           3.90859980271803    1.30015151651153   -0.95679183568780
H           3.58318152850262   -0.08442233676872   -0.12676453975725
H           5.04062483757457    0.67960634464648    0.06940612223193
