    26
        -50.45825241  Gyration_radius:  2.58524253102 Dipole_moment: 3.127
 S          -0.20078036755466   -2.29061423915777    0.02940605634492
O           0.35532398791376   -1.41018054519553   -0.98641668641571
O          -1.65634708871746   -2.33506080754698   -0.03755794729245
O           0.28684152514482   -2.02263308325703    1.36433270261337
O           0.31854641446816   -3.74361874503826   -0.34979741187142
H           0.14221444338762   -4.26321493178049    0.42901832636980
H          -0.04223509908242   -0.51481616900658    1.80818945574617
O           0.27368296652679    2.87608474350513   -0.93035479852171
H           0.47274241704215    3.81136471540769   -0.87619567438015
O          -0.25685117012829    0.41026359115834    2.09097792067253
H          -0.34905910495183    0.37541264511069    3.04456912357237
O           2.82005472287370   -0.53826568974869   -0.46712829337605
H           1.93507916261089   -0.93272252297881   -0.60378645300642
H           3.20973777943310   -0.45219560859470   -1.33877985640532
O           1.85690582378664    1.67263700533959    0.77698121619284
H           1.19581650823830    1.26472137491357    1.35905253048672
H           2.33250628977057    0.92066844996204    0.37174413081012
H           0.94407503752435    2.42479945829970   -0.34679986441568
O          -1.80278989309031    1.82083641345818    0.32673562526672
H          -1.97123625235193    0.70992526026773   -0.67151260163965
H          -1.34359642697845    1.37585518826292    1.06364891528903
H          -1.09867860218361    2.34039430508786   -0.13363690013703
N          -1.90859334716047   -0.14168071398058   -1.34994458527275
H          -0.91224479384595   -0.29347842497121   -1.58668991910422
H          -2.49158402281593   -0.03041626458704   -2.17196049261026
H          -2.10953091991300   -1.03406542492762   -0.81409449896364
