    26
        -50.45825263  Gyration_radius:  2.58532634739 Dipole_moment: 3.138
 S           1.60382480241321   -1.45406686600559   -0.77612974736321
O           1.45912420528806   -0.82593923136321    0.52799799017757
O           2.20236202013295   -0.54514792694076   -1.74617362478607
O           0.38982221853085   -2.06913919305970   -1.26550030143860
O           2.64324729087397   -2.63541240692715   -0.55581707854222
H           2.56358611462312   -3.16409691286715   -1.34437062482528
H          -0.79627544764468   -0.99311012527871   -1.38418578753686
O          -1.52602312922150   -0.32872695142735   -1.47293534885366
H          -2.08018034037672   -0.64589858803040   -2.18802450065822
O          -1.44921387741323    2.14066975889916    1.59101524394983
H          -2.18899277504343    2.63650899906757    1.94339187020043
O          -0.35563771550795   -1.96756458936523    2.11194002783971
H           0.00434424825781   -1.83156206119567    2.98997344594841
H           0.31889681319786   -1.63195944801667    1.48763137879232
O          -2.30246215714863   -0.30771140200267    1.20765520169093
H          -2.16076508488663   -0.38631700958956    0.25060276184280
H          -1.70530692785032   -0.97204904594891    1.60507867581622
H          -1.76059105877178    1.19520419232261    1.53827418921118
O          -0.79026696525076    2.25911627537730   -0.96956347282720
H           0.66259584404503    1.97208321784858   -0.71414594260635
H          -1.12778422047579    1.39410628926647   -1.26915515374031
H          -1.10099819794508    2.34221744122269   -0.03453897711735
N           1.65168244951131    1.59961805928257   -0.44476941973490
H           1.98404058418335    0.91690158603235   -1.18457871850629
H           1.54661377493271    0.95698950928240    0.36006855110949
H           2.31435752148612    2.34528642945232   -0.26374062802312
