    26
        -50.45825228  Gyration_radius:  2.58529340452 Dipole_moment: 3.121
 S          -0.85722487921098    1.91222089646031   -0.94732540467648
O          -0.65545191518880    2.77977693970052    0.20666228478420
O          -1.51856778854634    0.67114181626772   -0.57495356141842
O           0.35167895319447    1.72089708004072   -1.71776501048823
O          -1.88147154531142    2.65809319394374   -1.90622654457609
H          -1.35904076188100    3.34059287704021   -2.31733244502433
H           1.41919215916508    0.83525709102476   -0.90835846335342
O           2.08584335224975    0.30170849748531   -0.40575016598956
H           2.94301849634187    0.59768216075464   -0.71672795490085
O           0.27204087253382   -2.61486491112266    1.51679932934193
H           0.65862383996809   -3.44882940909553    1.78578506599491
O          -1.17728405880859   -1.32798461819292   -2.30459433113653
H          -1.28807446491292   -0.53547244686497   -1.74142575355578
H          -1.99789231140410   -1.81887119632184   -2.23643421635230
O           1.37265075194521   -0.29752608366580    2.16823489533735
H           1.03404551930212   -1.21729484160842    2.03781165906844
H           1.76458677874437   -0.05134866391869    1.30937718271740
H           0.06449275062886    0.44254834005804    2.15436429968281
O           1.01102996222085   -2.21215832115937   -0.96551983177123
H           1.49504102469973   -1.37708908883192   -0.86246059753988
H           0.48345700948393   -2.52130867772767    0.54720803744724
H           0.25426303905877   -1.99367997828833   -1.54468255107043
N          -0.89757744348990    0.91752320385035    1.95892526917213
H          -0.73882362056362    1.85245987591274    1.48508031698404
H          -1.47638595648883    0.98442351033311    2.78866907804321
H          -1.36216974372706    0.40210274391179    1.19063941321366
