    26
        -50.45882231  Gyration_radius:  2.49480533461 Dipole_moment: 4.349
 S          -1.56911799718219   -1.44091832796950   -0.10633479312040
O          -1.76378019112614    0.00259889063396   -0.12318468714791
O          -0.67349192949354   -1.86766057057513    0.95015063394165
O          -1.21088038006059   -1.94274400916989   -1.41795484220925
O          -2.97756358063495   -2.07162756322854    0.24502642392637
H          -3.47643575831065   -1.83337617780801   -0.52810787341373
H           0.03770721520462   -1.15652020751209   -2.02998838859531
O           0.87694459954767   -0.72833851944103   -2.34384511020057
H           1.26211229751837   -1.34995570954654   -2.96421173546314
O           1.21473287260288    1.14421793766729    1.95426246434264
H           0.60935261736818    0.66555540280076    2.56725686149867
O          -0.57746221719862   -0.41060851588609    3.15214086307436
H          -0.35842451819583   -1.02776098354963    3.85195249380258
H          -0.71687885012571   -0.95520885391976    2.34647753420922
O           1.72031211251376   -0.84931745271649    0.28875470080761
H           1.59085217822486    0.43648641319843    1.37555441911434
H           0.94361975175232   -1.36554696747728    0.57325166260940
H           1.61171607234071   -0.74504869760598   -0.67001166638101
O          -0.40867153269440    2.08312203517302    0.33131338385015
H          -1.02148950901040    1.28493034914723    0.19853865046422
H           0.29359524024395    1.76399838011109    1.08361929432624
H           0.14554431696923    2.14890374811898   -0.56487440708626
N           0.96844712590373    2.09427209271876   -1.82124093046517
H           0.62090748976594    2.67692787839161   -2.57134753839387
H           0.91803564930822    1.11964665846635   -2.12035109182955
H           1.94031692478032    2.32397275996945   -1.65684634168927
