    26
        -50.45996614  Gyration_radius:  2.46187685475 Dipole_moment: 6.415
 S          -0.07904782552542   -1.62659012345827    1.30182377936005
O          -0.94253308238101   -1.98560632418996    0.19892703902287
O          -0.40090647588761   -0.31049343527021    1.85191414273986
O           1.33585757821957   -1.74714740843206    1.00950993597088
O          -0.38004148054217   -2.66139835876591    2.45911356742212
H           0.35915312966279   -2.51062452680611    3.03750303109233
H           1.90714897229473   -1.12574877290551   -0.35353380873571
O           2.21287588347738   -0.73908384671044   -1.21421198761400
H           2.76893163304643   -1.40867539423714   -1.61587348996020
O          -1.95379842274518    1.37630438007134   -1.00608587782642
H          -2.54770806769218    0.80768225943636   -0.45523604554446
O          -2.97108879120485   -0.34381314406300    0.73657465998454
H          -2.38260574932810   -1.08070856067456    0.48290155323384
H          -2.62164863509692   -0.04189720321013    1.58032809241930
O          -0.24825942374363    1.93577575874462    0.69088660954812
H          -0.25563456812829    1.06614556865002    1.21374555001557
H           0.66796774951122    1.99365356498173    0.16727548429735
H          -1.02573416045589    1.78855326228032   -0.06592504629359
O          -0.42971205178684   -0.53219942620497   -2.00570729852431
H           0.53751778538540   -0.50420673742985   -1.93664255984033
H          -0.70289373785554   -1.19222724262748   -1.34277437885084
H          -1.44040624436628    0.73573524815937   -1.55906430788976
N           1.92766352004938    2.04026945780196   -0.64339935962953
H           2.15441503522935    1.07327316993201   -0.87867289526849
H           2.71301796072916    2.44025953522331   -0.14691115723836
H           1.79746946913286    2.55276829970933   -1.50646523187053
