    26
        -50.45996587  Gyration_radius:  2.46195510023 Dipole_moment: 6.412
 S           0.26022852836417    1.67245569704127    1.21908927619927
O          -1.10090512238930    1.76492658440432    0.73989307554139
O           1.21809265712885    1.47500676936338    0.13189710890465
O           0.45092147154932    0.69922241966577    2.27652253588042
O           0.60849046692367    3.08101939055987    1.84782432215568
H           1.40238970289549    2.87682234050493    2.32904129270895
H          -0.16294489408882   -0.77133945343861    2.10049733950747
O          -0.83594356360610   -0.11328470036931   -2.45218835391425
H          -0.86126487156898    0.87539072361016   -2.41693916650756
O          -0.57285807888837   -1.66264251592156    1.95463068615606
H          -1.02516228532188   -1.87648125051146    2.77231530796797
O          -0.58313990691324    2.44067828351035   -1.78491433438463
H          -0.93578274275395    2.32866048546459   -0.88115888780827
H           0.36435558864924    2.54656972287822   -1.65763384269714
O          -2.02502447746500   -0.60057361391594   -0.14682881716700
H          -1.89377285538581    0.30419666453574    0.19068503015304
H          -1.41105743258446   -0.40279259608983   -1.70053984919246
H          -1.62320458355946   -1.17168317860519    0.52657648537555
O           1.39111059487423   -0.49327396813558   -1.45295088860767
H           1.30656128023172   -1.39074577340584   -0.90090322935864
H           0.44107213902706   -0.36831337330450   -1.98197419993633
H           1.40129678563020    0.27913528904408   -0.79483981741754
N           1.10011035633834   -2.65823673302443   -0.12890269321473
H           1.96077778973390   -3.07706252053182    0.19833864455485
H           0.59262066110183   -3.34637001999512   -0.67058297519649
H           0.53303279208449   -2.41128466332381    0.68304595028217
