    26
        -50.43882608  Gyration_radius:  2.42424993638 Dipole_moment: 5.174
 S          -0.20278315834883   -1.54637120418038   -1.37243969795484
O           1.13190625418115   -1.03533996141896   -1.04748338766270
O          -1.22538871343879   -0.53408039873592   -1.27925086935796
O          -0.50439897398892   -2.72776070008399   -0.57547209867929
O          -0.13661374029764   -2.00698401659305   -2.87595048847391
H           0.58049143530860   -2.63320123596052   -2.87846600606903
H          -0.65817093456325   -2.28774844380906    0.89377513489643
O          -0.64906199395008   -1.90387538231322    1.82436302219669
H          -0.41048688194896   -2.62870456601007    2.40596852924436
O          -0.49930074993764    1.90782642440058    1.30926457890916
H          -0.57402686826621    2.42903893557196    2.10918177688529
O          -0.37563236164979    2.06235149196947   -1.60744401982356
H          -0.70059272795307    1.15062152567390   -1.66142400977316
H          -0.59431423879685    2.35954593540590   -0.71806558640636
O          -2.40299199053886    0.15107130310654    1.02396644606474
H          -2.18793743002797   -0.07201302488456    0.09694741801871
H          -2.14558698251436   -0.62719715183008    1.53275931575515
H          -1.31608994930727    1.33782373129910    1.23788589871992
O           1.08604413005474   -0.09783294760417    1.24877618790281
H           0.41618851329919   -0.77038396777941    1.60911101759964
H           1.23607642148779   -0.39230850999463    0.24993468441145
H           0.63470923692393    0.82117359148953    1.20672935815376
N           2.31009569801623    1.70463519945826   -0.40971869968224
H           2.94877339720833    2.48719843403882   -0.48438713596664
H           1.49028267786398    1.93687395020578   -0.96822884828790
H           2.74880995118323    0.91564099857131   -0.87033251061730
