    26
        -50.43882620  Gyration_radius:  2.42423243511 Dipole_moment: 5.171
 S           1.09861142857263   -0.71536156012186   -1.61140330112684
O          -0.34098250265175   -0.68469920786271   -1.68696223379615
O           1.59027081562944   -0.92354830600319   -0.24652059259900
O           1.71975841050853    0.46207030975035   -2.20270990782032
O           1.58403332851190   -1.96093978074577   -2.44206969835906
H           2.52707355342489   -1.95246896267670   -2.31256891067590
H           1.19443620412552    1.70525368288505   -1.45883072728481
O           0.85483486167723    2.43250403640477   -0.85105084624109
H           1.51272471146029    3.13019623774851   -0.88193329568427
O          -1.83433095747125    0.72553464985517    1.30965676284166
H          -2.32486925133239    1.31075367737338    1.88759183010194
O          -1.66971697749967   -2.01935724501583    0.31888800879594
H          -1.20981457913166   -1.69851751408493   -0.47184498137259
H          -2.09420403994217   -1.24376457393609    0.70033572560947
O           0.71527862919361    0.89165016599036    1.20054549203007
H           1.09891573461556    0.03285761087952    0.72940365908612
H           0.74195089256408    1.60514192929363    0.47855862517448
H          -0.26445493232137    0.68146136396131    1.41453296371777
O          -1.78681637447273    1.50843930444641   -1.17552835419326
H          -1.41737285718107    0.67610689467035   -1.53057030045264
H          -1.95342294895226    1.05020589074371    0.37286216000429
H          -1.07133565219441    2.15098259084382   -1.25359011793885
N           0.31271173266474   -1.50697222652410    2.46001684158821
H           0.16651894477196   -1.98762030618851    3.33955361166735
H           1.22089853088437   -1.79112993322839    2.11137902699262
H          -0.37069671545486   -1.87877872845607    1.80225855993763
