    26
        -50.46862856  Gyration_radius:  2.47486987138 Dipole_moment: 4.022
 S          -1.13579775664772   -0.01554551334187   -1.93766176227082
O          -1.41239105286827   -0.92346263946484   -0.81138339782861
O           0.27683807576086    0.09262637200782   -2.17985269908123
O          -1.83620324183628    1.24353586681927   -1.79086844846318
O          -1.78220522137724   -0.71447184324094   -3.20900754011786
H          -2.66955227449243   -0.37302965324902   -3.17431262130471
H          -0.96073445266008    1.99154746500000   -0.66677888915295
O          -0.47329499405930    2.39238358011762    0.09434155198461
H          -0.40928192666626    3.32998502466892   -0.09582692981983
O           0.39736188546343   -0.68432738917088    2.61189693373496
H           0.24883969380637   -0.87286664114059    3.53860886278612
O           2.53338192995817   -0.50030576477517   -0.89392166325793
H           1.58278713917940   -1.46394220412863   -0.23606281610377
H           1.90543498386072   -0.20976080934194   -1.58169782950155
O           1.84988910970839    1.20404934798076    1.03716981808395
H           2.50778955488809    0.21911620271943   -0.22046575937316
H           1.08402350667238    1.67244704784715    0.66309690654471
H           1.49419969310798    0.63148689509224    1.73011353243420
O          -1.70545236845573    0.37759327352357    1.51767398140107
H          -1.77417731733290   -0.12674375261106    0.68275860307548
H          -0.44706335363464   -0.26618133236620    2.26756747196447
H          -1.41931165372921    1.26162151894226    1.24116057704021
N           0.74791883346719   -1.97835915086542    0.24468138350110
H           0.70197243380948   -1.67213398355199    1.23531523556775
H           0.82564569045342   -2.98575825569207    0.16850204862851
H          -0.13061689637284   -1.62950367177918   -0.23504656047409
