    26
        -50.45234083  Gyration_radius:  2.45880369146 Dipole_moment: 5.679
 S           1.28565625447812    0.82949721932704    1.55536682127206
O           1.81903478335309    1.86037083146782    2.36614353660434
O           1.82474957280534   -0.53192221054487    1.98254188142423
O          -0.24824747916894    0.72152775722868    1.78406454940081
O           1.48625448723740    0.99236637725304    0.12356734650098
O          -0.12800820136473   -1.23628608207607   -1.92302683846533
H          -0.26292559925758   -1.86447860438218   -2.63349198057888
O          -0.04420604889912    2.70315218206975   -1.18104599937326
H           0.60962882384631    2.17482418114949   -0.67247323761238
H          -0.09158770099693    3.55822366023699   -0.75174611216429
O          -1.53376208804135    0.56203422410436   -0.42695065901076
H          -1.13256144154774   -0.14005441620469   -0.97238465205492
H          -0.76179728369788    0.62367186754417    0.91204711585113
H          -1.23081498489268    1.40099085863337   -0.82532345988294
O           1.66370170197542    0.58885476485312   -2.53292411423096
H           0.57764769866199   -0.60538761336898   -2.22550621080049
H           1.19084333693816    1.40268890803629   -2.73566679332682
H           1.92693373647606    0.67813015555551   -1.60195332724295
O           0.48140960857697   -2.14774099107830    0.59886511185802
H           1.34009975707803   -1.23821309759360    1.41130853543646
H          -0.42102257268205   -2.09820400999648    1.00816812724415
H           0.36986293920316   -1.85051654413807   -0.32228175030650
N          -1.96094532875441   -1.71195460509199    1.65599660406441
H          -1.70812514628012   -1.07853280786373    2.40549231624632
H          -2.57683702919334   -2.42192006554508    2.03079786859432
H          -2.47498180586152   -1.17112191957550    0.97041532055882
