    26
        -50.47250316  Gyration_radius:  2.48728073486 Dipole_moment: 2.882
 S           0.49570938119522    2.08298096477827    0.74791998656746
O           0.35590555418962    0.82214570346635    1.45101122466464
O          -0.72507115749026    2.45188017234491    0.04157609017515
O           1.66086605008015    2.13792611539514   -0.11415181396346
O           0.71963838732230    3.18630722006024    1.86243919782976
H           0.94963567249562    3.93992032027937    1.32990701902979
H           1.70245641482034    0.94573630919690   -1.17073566869355
O          -0.12144911929731   -2.73862060299003    0.27332788488562
H           0.10251403262408   -3.65440417874796    0.43968134875792
O           1.74521114894622    0.16181162251632   -1.77887114474143
H           2.27649509843918    0.43752616650374   -2.52723759810152
O          -1.64374335916746   -0.96821037643891    1.73808661604188
H          -1.19848893444768   -1.74087479759085    1.34461125612110
H          -0.92725409518100   -0.32973657285436    1.91098831238888
O          -0.62558689514666   -1.18791754147263   -1.94625232192675
H          -1.64197770200332   -0.22517510691832   -1.17998279349969
H           0.22323929047670   -0.70860208718578   -1.99277897719511
H          -0.48936392105969   -1.88721596614397   -1.28171484544046
O           1.93206562113364   -1.18180582866128    0.65267306181174
H           1.47664493968342   -0.42803697965982    1.07880741598840
H           0.70622593677114   -2.20651546054281    0.45866324755656
H           2.14437610217090   -0.86351510976687   -0.23701544898645
N          -2.18206782105220    0.35146760027243   -0.46975083677887
H          -3.12716789549576    0.54374455110963   -0.78065528908650
H          -1.64748934239060    1.25151180893353   -0.29596264342204
H          -2.16132338761712   -0.19232794588250    0.44541674001790
