    26
        -50.46309538  Gyration_radius:  2.39407739491 Dipole_moment: 2.607
 S          -1.26625204329321    0.09952594457645   -0.91067519464055
O          -1.06762073005747   -1.06965798722087   -0.05654976661995
O           0.04584951253204    0.70194310544015   -1.21475587422574
O          -2.15631214743005    1.07325232711161   -0.31915918964991
O          -1.87551682478196   -0.37110428185768   -2.25130271830586
H          -1.28301709470484   -1.13884928430266   -2.49495647215303
H          -1.77417846118861    1.57739048860577    1.13347359928759
O          -1.42276249488418    1.86691626348912    2.02018163652742
H          -2.12955677134302    2.36480250699847    2.43354652878928
O           1.96871793623439    0.21379710218523    1.59076647869745
H           1.64661294944503    1.16865468012427    1.27813844494186
O           0.91275020433678    2.29881817892154    0.68334655493390
H           0.57051810859800    1.86544454160196   -0.13552193859603
H           0.12871737175622    2.42142773410874    1.24810663556621
O           2.13249000336969   -0.72273504014399   -0.79556882056027
H           2.13069438489449   -0.28320138861808    0.71672067564024
H           1.28455130370629   -0.24505253968648   -1.02817921201797
H           2.82608433374342   -0.27483853226066   -1.28477665222565
O          -0.26226456651072   -0.56759716587942    2.34698911659180
H          -0.62144221367579   -0.89003884860229    1.47708827591794
H           1.06047693677820   -0.20340589755197    2.00737700014826
H          -0.73187543716199    0.27385885621210    2.50335824700839
N          -0.18653721600022   -2.36073284854345   -2.35956264734950
H           0.78895019901263   -2.18558278165133   -2.56353812347862
H          -0.41438040198935   -3.29456193401596   -2.67510284710866
H          -0.30469685136755   -2.31847315902890   -1.34944375709954
