    26
        -50.46309538  Gyration_radius:  2.39403341825 Dipole_moment: 2.606
 S          -0.02102321481058   -1.32455566773992   -0.83027824229200
O          -0.96582325786661   -0.20337067041546   -0.99664595870554
O           0.47456408047440   -1.33097715530411    0.54460630460874
O           1.04530053030092   -1.24857754337466   -1.80360842097253
O          -0.81316486513387   -2.63015938499712   -1.07134450322090
H          -1.41182734257845   -2.66532135996878   -0.27115297912781
H           2.06228273046990   -0.04569411668649   -1.63258458158946
O           2.61401052410705    0.76869288534294   -1.47172955869498
H           3.39307825586718    0.67156151868049   -2.02121808711633
O           0.20559408388278    2.31494928354756    1.02436303394089
H           0.20914390597268    2.37952338448709   -0.02899799545889
O           0.22894099339680    2.08798393202607   -1.47218032178488
H          -0.28371461055751    1.24382339503527   -1.48059798150157
H           1.14622157220562    1.82574828211310   -1.66846087555531
O          -1.92058558077877    0.87647354569340    1.12017585432781
H          -1.59189358078701    0.36067168008778    0.32816937905174
H          -0.64333042079795    1.79144849212593    1.23029792162635
H          -2.67802820667487    1.37680506557295    0.80879524364104
O           2.02684165852793    0.63565267815438    1.17756650856397
H           2.48989853358338    0.75727621922004    0.32686161472357
H           1.02772605748640    1.63547961810690    1.20946911425356
H           1.49172074069951   -0.19298032708553    1.04838427720459
N          -2.01892083486553   -2.36107096753098    1.22995906157204
H          -1.11832675498091   -1.95989770804498    1.48287122851758
H          -2.22723796971228   -3.12036190369222    1.86536694951234
H          -2.72144704746385   -1.64312318535508    1.35191301449376
