    26
        -50.46309537  Gyration_radius:  2.39394191339 Dipole_moment: 2.608
 S          -0.26419656794604   -1.49646191582741    0.36890617312062
O           0.50750938131714   -1.03357282069588   -0.80048852451672
O          -1.23840453243166   -0.47024058537862    0.73442029903957
O           0.61535363286021   -1.84077815879653    1.46341491699074
O          -1.03084461801722   -2.76775340095056   -0.06269562665469
H          -1.70822213532355   -2.40028607612546   -0.69991218905328
H           1.38844976718500   -0.63535943348597    2.14182544420515
O           0.79528590141291    2.37044388717693   -0.44544700772775
H           1.62008898255652    1.71663523073048   -0.36894909852612
O           1.86436062767956    0.17839427291768    2.46536406482700
H           2.28670337381075   -0.07316208978068    3.28794690669624
O           2.49968640315280    0.55457736584317   -0.15789964514218
H           1.89478097070689   -0.16966149578080   -0.44949614793333
H           2.56329791912723    0.45345433504612    0.80875121334967
O          -0.44358285513735    0.91545032724144   -2.16216362793580
H           0.20997132982263    1.93702238675298   -1.15723349986859
H           0.04275422484238    0.88545672886640   -2.98891610962405
H          -0.16456087777702    0.10016664370262   -1.65321768394293
O          -0.24822922118609    1.70933015765335    1.70731348141654
H           0.51008313566035    1.33820113719920    2.19733059469199
H           0.29033192619895    2.20481387913617    0.49767117842394
H          -0.75554559342235    0.91038060971825    1.40068832479306
N          -2.68084206266074   -1.32801711392136   -1.48636877054888
H          -2.51221039682912   -0.66420719366868   -0.73336869953720
H          -3.67651337132697   -1.49221425199881   -1.55887273130314
H          -2.36550533436708   -0.90261241552372   -2.34860321519511
