    26
        -50.46309538  Gyration_radius:  2.39409036826 Dipole_moment: 2.608
 S           1.10639770934904    0.08618396503551   -1.09932903132507
O          -0.30298197626188   -0.27545943313393   -1.34441036703780
O           1.46023333289634   -0.27682090415795    0.27139158700134
O           1.33594786763408    1.48598235722353   -1.37884993970200
O           1.96997113185075   -0.75478893575655   -2.06727018309567
H           1.86433377288958   -1.67787267169841   -1.69750632392312
H           0.64676310085572    2.51944895623371   -0.39549732334521
O           0.13273309972091    3.08540266795700    0.24400595957012
H           0.45632129089553    3.97929577662882    0.12342488737844
O          -1.91972038533501    0.21692669464994    1.64900349881308
H          -2.09986886832272    0.81307557589821    0.79707770735243
O          -1.99318488182644    1.54083185383387   -0.47856707785579
H          -1.41980529023291    0.91471162461045   -0.98322721017861
H          -1.42192437526611    2.30680854053105   -0.28944030217712
O           0.33767648297448    1.13363460987331    2.12330682391471
H          -0.95964689526088    0.58834388328744    1.98326811259719
H           0.87343815191892    0.55928031109125    1.51287519300611
H           0.30637722697005    1.99903642389770    1.67279907193099
O          -1.41182480124030   -1.90399002852456    0.29224383241432
H          -2.19814444213286   -2.20329742501717   -0.16945964586458
H          -0.90560859694610   -1.34696185225198   -0.36706596447965
H          -1.74351178846459   -0.70835478726786    1.26144594431858
N           1.52575150290891   -2.90318675300792   -0.65009395040683
H           1.52774568058073   -2.22163588782771    0.10591932227480
H           2.21778079039244   -3.61344703758048   -0.44951422763631
H           0.61475114947243   -3.34314754459116   -0.66653038361249
