    26
        -50.43839797  Gyration_radius:  2.49598232967 Dipole_moment: 4.126
 S          -1.28376385120229   -1.63594715134213    0.16420379292059
O          -2.30026524631779   -1.10113768329136    1.08539831074052
O           0.03979385464587   -1.58260562936749    0.71468809294991
O          -1.39747744826771   -0.99398538086011   -1.13961563568160
O          -1.65710066733543   -3.14916758554772   -0.04961641002066
H          -2.51445668126413   -3.09656517820781   -0.45983208366742
H          -1.05010660090369    0.52309844843932   -1.06462319976844
O          -0.90675836979950    1.49885670222127   -0.88372613687921
H          -1.37761993057626    1.96959483888963   -1.57434435169047
O           0.57190259805030    1.33380404491391    2.62922852380453
H           0.76406884051882    2.13618091775031    3.11816886454729
O           2.45849810205253   -0.97330032815600   -0.14968148693441
H           1.56633967269370   -1.28113005127350    0.11951184384991
H           3.07099066922951   -1.36927238653849    0.47223248853612
O           1.67428562026553    1.54792840127322    0.29871977848952
H           0.90396636316331    1.61645778248336   -0.28148126850583
H           1.09852584250183    1.38379106119868    1.77296126869550
H           2.08760426351650    0.68229588818943    0.08333189216726
O          -1.69875365450513    1.22620294050017    1.55977123476980
H          -0.79970981146153    1.22809765295122    2.10059843805265
H          -1.44279809319550    1.49353237238213    0.62115996386188
H          -2.00856318879836    0.19284528652237    1.44427495840594
N           1.08693198009332   -0.49091936504830   -2.91674949091801
H           0.20724985618506   -0.82987430835283   -2.54135226316723
H           1.08966565300829    0.51737399396103   -2.81321209549709
H           1.81755021770438   -0.84615531369657   -2.31001504906195
