    26
        -50.43839813  Gyration_radius:  2.49638672988 Dipole_moment: 4.132
 S          -0.14635043046131   -1.31675136932138    1.61171212054950
O          -1.59154782081594   -1.59833960810439    1.60973351062001
O           0.14148732819557    0.08336023509278    1.73190865321727
O           0.49075156440170   -1.94437126690394    0.46058660273364
O           0.42600327652888   -2.03852395759031    2.88717313345611
H           0.24184297281129   -2.95511574112841    2.70817537356727
H           0.00554067050626   -1.31647222658739   -0.88023404495816
O          -0.44764785682713   -0.91282276927583   -1.67838806161299
H          -0.38284822422476   -1.56475481240895   -2.37914279008707
O          -2.17458812685493    2.07217081605354   -0.04624723182134
H          -2.75855400552038    2.63811359626837   -0.55475495423287
O           1.83178033038535    1.79821637667777    0.64982774035812
H           1.27869195089624    1.12433572838930    1.10054741248658
H           1.86557072284324    2.54964840941269    1.24388454182975
O           0.05066473276458    1.86298104676757   -1.34889110285009
H          -1.27984404496208    2.09211485753624   -0.50676726015820
H           0.78496770437120    1.93065669217475   -0.69862887284331
H           0.03551992211265    0.93617891986055   -1.62371834876261
O          -2.56488450243963   -0.39741507924878   -0.29134262304663
H          -2.48057638336304    0.63178205779569   -0.10576478152194
H          -1.84385530125638   -0.60425114440249   -0.96605720486455
H          -2.22556320531799   -0.91850597124772    0.59780464429722
N           2.93761284665605   -0.66028139186287   -0.93382528356959
H           2.32329715922596   -1.27529524759387   -0.41030770673821
H           2.45356537810579   -0.40709457508197   -1.78752085432928
H           3.02896333224151    0.19043644472965   -0.38976261171220
