    26
        -50.46309545  Gyration_radius:  2.39399439348 Dipole_moment: 2.606
 S          -1.01832057063373   -1.18592927114967    0.02949036847657
O          -0.02993954166991   -0.89000059293963    1.08439829101036
O          -0.51786225016159   -0.68187676956550   -1.24792368751496
O          -2.31428340538379   -0.64317888824395    0.36998235647629
O          -1.14020862517195   -2.72413131455551   -0.06500863679094
H          -0.25455251507873   -2.98323486571074   -0.45030332958128
H          -2.42912301613044    0.93757014557392    0.37774670771248
O           1.40301279557202    2.10645105695347    0.20748949145109
H           0.78247366267625    1.99639228365849    1.05361793884201
O          -2.38567276912879    1.93288355724762    0.40459073063382
H          -3.29365534040320    2.23459165380753    0.45816739441076
O          -0.22955185506680    1.55411275192483    2.02830151043386
H          -1.08160708807766    1.86284495649707    1.67145870342382
H          -0.21836045492403    0.58210571080710    1.85339431840228
O           2.34657221255356   -0.27851978099370    0.35112164796172
H           2.87352224082793   -0.38346029479567    1.14629359091959
H           1.43270468246987   -0.61233389899368    0.58490029330193
H           1.90238532867986    1.22030325733777    0.15846086064125
O          -0.41633274381289    1.89065187334007   -1.46669020158275
H          -0.45698919145031    0.89870624249913   -1.53126782745155
H          -1.20542265223354    2.12959538501533   -0.94400149289799
H           0.68333061525283    2.08893076858801   -0.60143853753716
N           1.20002039485565   -2.87177762671100   -1.21558494256607
H           0.89813721044985   -1.97903897351645   -1.60031682692889
H           1.42879148775882   -3.49462823928985   -1.97934383335167
H           2.04093138825873   -2.70702910696191   -0.67753488774350
