    26
        -50.46309547  Gyration_radius:  2.39398619083 Dipole_moment: 2.605
 S          -0.10603769486815   -0.48418964048687   -1.48258545280684
O           0.76749402821366    0.63581090290758   -1.13803487897057
O          -1.18508761944612   -0.57901036850882   -0.48060722348657
O           0.61152065083176   -1.73483788421252   -1.58777369891236
O          -0.77165773126386   -0.18479318412611   -2.84539578877063
H          -1.10055490189351    0.75115080831810   -2.71940530139729
H           1.48186337151976   -2.14842784065051   -0.32985520071953
O           0.22047616901552    0.39861251027325    2.49846897152505
H          -0.09343149079557   -0.59136849601285    2.31282113183046
O           1.95496276990222   -2.34338903663001    0.52550268873188
H           2.54343885746133   -3.07652423339143    0.33966001939016
O          -0.46430664330233   -1.87358563611450    1.68957418863054
H           0.37924319634969   -2.28771877400634    1.43340767598126
H          -0.85254227999007   -1.54384300416597    0.84344714357146
O          -1.59636782529283    1.45454740057422    1.02103264396686
H          -1.45604759189197    0.72618022184582    0.34942940115675
H          -2.46576850288672    1.29866127106593    1.39630358892217
H          -0.46161320122264    0.96494000795853    1.99727190135757
O           2.19290621181303    0.32198012259022    0.99417693140752
H           1.74577064830737    0.54406855715859    0.13365685946295
H           1.13603004954074    0.45469531527006    1.92281594988009
H           2.36727039036902   -0.63661128813521    0.93339661520309
N          -1.27278677983862    2.26748486564917   -2.09890240391717
H          -1.19094343852706    3.08060177695035   -2.69541040261632
H          -0.39344553172058    2.13501699291481   -1.60357211363839
H          -1.99038510046841    2.45054862310314   -1.40942324555483
