    26
        -50.46309526  Gyration_radius:  2.39414814048 Dipole_moment: 2.609
 S           0.81665938794710   -1.21229123111686   -0.55108739261129
O           1.46316873383535   -0.21875941435212    0.30393934140097
O          -0.33092762450710   -0.58527542160416   -1.23455599368341
O           0.40183919918460   -2.38784038527046    0.18110913196397
O           1.82031067245109   -1.64513471861005   -1.64443243232505
H           2.15934067265955   -0.76637250099447   -1.98036583553233
H          -0.52185836735659   -2.13624751687155    1.44378784954994
O          -1.13798271362276   -1.87896220667831    2.18374132595319
H          -1.23517497972545   -2.66086785443177    2.72917951107682
O          -1.60553332848980    1.69720910495139    0.99769737347579
H          -2.12629668123974    0.82531775370483    0.71195851213582
O          -2.49865378732109   -0.52298682016035    0.25001034684540
H          -1.78652777619476   -0.67615205457729   -0.41689757574570
H          -2.28040764745298   -1.11670736358663    0.99066547103398
O          -0.43619000702172    1.97359684508618   -1.27237959656810
H          -1.07679128029482    2.17328661287469   -1.95849144152095
H          -1.11025433664890    1.96975881534115    0.15048860702451
H          -0.29899718621236    0.98311480078899   -1.30930894506266
O           0.10295092193260    0.53094900349830    2.36921823502127
H          -0.34479144508221   -0.30969932013248    2.58309881494466
H           0.74610369416700    0.28928310033958    1.64974564879490
H          -0.85385178170590    1.29973107701040    1.66782881913592
N           2.50266436634263    0.84303617988257   -2.05056863926361
H           3.44894872392515    1.15728950922922   -2.22151638176407
H           2.31444928225665    0.89975240800110   -1.05184145319235
H           1.86780327798502    1.47497161765837   -2.52102331109742
