    26
        -50.45234083  Gyration_radius:  2.45879708792 Dipole_moment: 5.678
 S           0.05036413782194    1.95848587920778    0.96167888160144
O          -0.70186155305813    1.63054527727404   -0.23966489830943
O          -0.73565104732408    1.49515119125439    2.18385852366812
O           1.31679932554519    1.05644823160595    0.95800543963244
O           0.43044412807124    3.31615566439742    1.09061704270753
O          -1.29872106857762   -1.69445565089583   -0.82830408700532
H          -1.77993017515108   -2.49286936398749   -1.04877253909040
O           0.60230135668525    1.40169318874800   -2.52413990086787
H           1.18974026469110    2.14007617432585   -2.68958648602758
H           0.10625326520151    1.62170830967165   -1.70516895151543
O          -2.23435221697580    0.41412318917374   -2.09014092249842
H          -1.97518452488724    0.99870529672146   -1.35870088964280
H          -1.61996689942768    0.62110632868009   -2.80197229110337
H          -1.73233046581748   -0.94995386595964   -1.32337840463910
O           1.23793027813914   -0.69155400554007   -0.91507892797461
H           1.27627973691534    0.33905652901654    0.23918152588618
H           0.38117528353487   -1.15601590476388   -0.87441763104365
H           1.16238490368481   -0.08008130646466   -1.67302641500039
O          -0.98479752744903   -0.97979721299610    1.80871243458590
H          -0.90938888622685    0.48728306578352    2.06311561269272
H          -1.20152771424995   -1.19913487180468    0.88450173491555
H          -0.06646311925143   -1.32444484449719    1.95826744033375
N           1.60095686392819   -1.72127244638222    1.99741084804823
H           1.90937217398319   -1.91679186758913    1.05222240360715
H           1.96620679523996   -2.44025840461029    2.60859555547714
H           2.00996666493595   -0.83390859033295    2.26618491156197
