    26
        -50.47250317  Gyration_radius:  2.48722723016 Dipole_moment: 2.881
 S          -1.32634159935987   -1.67437948381307   -0.76177051543464
O          -0.72907583470279   -1.44304002962644    0.53949851697501
O          -0.32144441444985   -1.77464326911887   -1.81310712311355
O          -2.37028947593003   -0.72455794622249   -1.09585676483490
O          -2.03019982064360   -3.09109989334073   -0.67751426870235
H          -2.51555615257007   -3.10321275927540   -1.49530658339095
H          -1.87632263885811    0.78800751068638   -1.01061008622980
O          -1.57014365348356    1.72508662587709   -0.89096366420891
H          -2.12771272519000    2.25911352508448   -1.45862811892829
O           1.19431348746511    1.46169681371356    2.00675203761042
H           1.34790056554813    1.97859309597550    2.79778207551813
O           1.80279173393799   -1.16459705357389    1.43336082724615
H           0.88273046784945   -1.46146239464426    1.30618710019568
H           1.72519931179903   -0.26357180491451    1.79703249525223
O           1.14787286345168    1.94297086643555   -0.70490155734705
H           1.65268431206715    0.47769260780547   -1.08607505613183
H           0.18167356588099    1.94393499504705   -0.84244326043444
H           1.26950113314770    1.94005156284906    0.26169509233983
O          -1.32756840058433    0.86425447801785    1.74582335222477
H          -1.60377038205202    1.37436557146445    0.97031245846244
H          -1.23459711696832   -0.05157178372670    1.41440746766700
H           0.21448978819790    1.25653153540252    1.98837039380278
N           1.87926866404537   -0.55958209824551   -1.12291455302483
H           2.68267364750369   -0.74936357330164   -1.71059417242416
H           1.02062543608090   -1.07567936347100   -1.47292793077184
H           2.03129721781739   -0.87553772508334   -0.11760816231717
