    26
        -50.46570317  Gyration_radius:  2.43023743298 Dipole_moment: 4.259
 S           0.40197329073284   -1.83407524830349   -0.58727235419969
O           0.45901092457082   -0.97280130909389   -1.75975651430578
O          -0.93761274638805   -1.85926560683891   -0.00436390997620
O           1.43412043212284   -1.56662929376162    0.38591279392653
O           0.66762276234816   -3.29743599346849   -1.13703112199792
H           0.80576332173278   -3.81439261335963   -0.34936693601885
H          -1.49080822947845   -0.83095130054797    1.42218518857851
O           1.04183194906247    2.30400171981819    0.30953589098004
H           1.49137399154726    3.14953605581767    0.33242521794450
O          -1.60873203349746   -0.05405160759211    1.99001368670210
H          -0.71616593716482    0.10172049031234    2.36963859742080
O           1.01596963650353    0.32162801830273    2.31973203036849
H           1.09479694952710    1.11748487278395    1.77256588713149
H           1.24685109012018   -0.42200499063898    1.73717786399742
O           2.49612291461570    0.54703548302323   -1.00746798753891
H           2.75178204473272   -0.06554938179548   -0.30743792964223
H           1.81592425429578    0.04859057996299   -1.49826729954717
H           1.60237885629240    1.70133910437593   -0.24665272472701
O          -1.66651358093008    1.89955866511287    0.24447405743964
H          -1.86479285119612    0.91745809781785   -0.83143441208528
H          -1.76035022710620    1.27768550880856    1.01859114391326
H          -0.72781023101586    2.16403683818789    0.25137040271457
N          -1.91959742938429    0.02906657479561   -1.48631577209321
H          -1.89800605930973   -0.80288500318387   -0.84916909334535
H          -1.01520635510037   -0.09617278522518   -1.98066159649387
H          -2.71992673771417    0.03707309465292   -2.10842512912923
