    26
        -50.46570280  Gyration_radius:  2.43004709365 Dipole_moment: 4.257
 S          -1.14855946413512   -1.17433965583145   -1.08208407457424
O           0.04872717349250   -0.90755463949176   -1.87524798385149
O          -1.89438111796656    0.04691662880943   -0.81209015247475
O          -0.87981273586877   -1.96711398059711    0.09399256914163
O          -2.10090041586563   -2.04410710189409   -2.00442415219704
H          -1.68712468060271   -2.90167730504224   -2.01311225940481
H           1.74244398895041   -0.69303680412616   -1.18633276857258
O           0.24871855363423    1.01466929756376    2.32377722649331
H           0.22955448639284    1.40720762476220    3.19735023756038
O           2.45490413555800   -0.39091418510684   -0.60214440793011
H           2.30258221370853   -0.88288596736633    0.23433150539781
O           1.36067161711750   -1.47296159311480    1.58222439283206
H           1.08310045400146   -0.64500126824484    2.00214811925211
H           0.58334844299823   -1.79343305997747    1.09355560005373
O           1.59397436295693    1.97020546730352    0.13765649715276
H           0.60321377356389    1.93661210471739   -0.94727945126514
H           1.14634946564927    1.73628079055104    0.97200593662637
H           2.10335858776496    1.15048037942234   -0.11492519858969
O          -2.04383133081297   -0.18187575174347    1.82455988138707
H          -2.18191900526769    0.03000279498194    0.88221281603014
H          -1.78355522461840   -1.11053797413717    1.80303692883447
H          -0.65463549088727    0.63281348342793    2.16611247283328
N          -0.10953321504836    1.67911773761140   -1.75185243569887
H           0.17939167473384    0.73638990151898   -2.10496246727238
H          -0.16358672554904    2.38111667039893   -2.48116324094327
H          -1.03249951397767    1.44362639566620   -1.33734560075793
