    26
        -50.46570258  Gyration_radius:  2.42994960692 Dipole_moment: 4.260
 S           0.17560660112571   -1.68552227118633   -0.99767450390988
O          -1.07072074470727   -1.05458309081051   -1.40961296290479
O           0.15663707701059   -2.03630715494411    0.42009015366767
O           1.35731017826091   -0.94998703133620   -1.38041930905970
O           0.22316505836058   -3.05872041916538   -1.78900346127289
H           1.11583866857688   -3.36415692888639   -1.66003290823304
H           0.88353671000753   -1.01144642806018    1.76548771222091
O           1.10806919718238   -0.22945241766604    2.29297550441273
H           1.75002929427787    0.25980764677087    1.73301367512167
O           0.02223636172002    2.53309879168997   -0.27454477758337
H          -0.02368172876623    3.46862609170459   -0.47516364911800
O           2.33446660523375    1.00405621173176    0.26466414043446
H           1.66044913773179    1.68273404118413    0.10962526147316
H           2.13207355878912    0.28512289188869   -0.35805279748644
O          -0.03985204630857    1.12933023269227   -2.50241899317956
H          -0.06527543953947    2.05406375832416   -1.14025443831665
H           0.84744254789919    0.75102613018325   -2.52409536945378
H          -0.59645327108001    0.36973335210122   -2.24712051242274
O          -0.99657873765012    1.29137532609545    1.94410782457923
H          -1.73100317600179    0.13395342758957    1.41379106944781
H          -0.18067328994941    0.80764320459233    2.25278929292785
H          -0.69318560681624    1.83521243573722    1.19351019580484
N          -2.06860103630408   -0.82203245974870    0.97378151695570
H          -2.93734522940995   -1.16278862158180    1.36975648386209
H          -1.27130612447597   -1.49135624783024    1.08653607658569
H          -2.09218456507535   -0.73943047108860   -0.06173521431352
