    26
        -50.46570311  Gyration_radius:  2.43015722547 Dipole_moment: 4.260
 S           0.05618792404501   -1.15964912797771   -1.58774212268296
O           0.19035579938129    0.21738788344281   -2.04137233887118
O          -1.23419967909981   -1.38875245198483   -0.94202749919217
O           1.17106848692950   -1.62682206877073   -0.79863137947933
O           0.04406919161989   -2.03109770832917   -2.91233953391567
H           0.14353936009250   -2.92443244136757   -2.59798070541288
H          -1.52523527410712   -1.35410604306016    0.87700736950698
O          -1.48045718982008   -1.05726515687691    1.79889513157593
H          -0.55476123071174   -1.24839344460630    2.06640311710652
O           1.42716317413832    1.55318008244507    1.42905940872810
H           2.01248313670780    2.16906304146932    1.87135689511334
O           1.18449587379949   -1.21927482497290    1.90561976962294
H           1.25465724746598   -1.49255244125729    0.97499710136810
H           1.36373735388416   -0.26701548326271    1.91348909365577
O          -1.31033679721626    1.54385238086952    1.53112512734199
H          -1.46251958182387    0.59785762658825    1.80817249946462
H          -0.34184813090789    1.65610657414562    1.55458442776890
H          -1.73028192039585    1.41548947224968    0.12787361127657
O           2.49195752118906    0.77877663328840   -0.85221586576945
H           1.84739520819768    1.34326991140376    0.55388110284773
H           2.67896899390635   -0.15171927419078   -0.67912448497488
H           1.71185672285965    0.74122248030150   -1.43701469471541
N          -1.96926355414717    1.09823744334164   -0.90323007938821
H          -2.05325691054630    0.05413815794537   -0.87369529203302
H          -1.12660728200377    1.19647874606704   -1.50210978258706
H          -2.78916844344566    1.55602002299393   -1.28498089596881
