    26
        -50.46570299  Gyration_radius:  2.4301740127 Dipole_moment: 4.257
 S           0.08881679241958   -1.09464088243001   -1.63210849954724
O           1.30348174901527   -0.28332987070623   -1.59967200044499
O          -1.10527253969583   -0.26632269300005   -1.72091001484663
O           0.04114225422328   -2.07873565124152   -0.57698435670458
O           0.13577543358047   -1.89945119468344   -2.99744803745144
H           0.80161830080201   -2.56340992554096   -2.84704048235849
H           2.21033785413177    0.20050519405391   -0.07023352068213
O           2.36354031169971    0.51362452376384    0.83446607653732
H           2.03221609765548   -0.21843923049944    1.39961843553114
O          -1.33173786255796    0.33849109322178    2.14510708872663
H          -1.92462238114156    0.44385443337604    2.89008225786463
O           0.87580924652521   -1.41057244085331    1.94026781832269
H           0.12935079729250   -0.85153389110886    2.20324659778358
H           0.63168074961980   -1.78665722143732    1.07734187757551
O           0.40234524613952    2.21912409086297    1.16573905814938
H          -0.25956301928336    1.63989479544043    1.58713542619790
H           1.24547575515391    1.68603683534595    1.17139103845447
H           0.16799094743701    2.21432008316790   -0.28541654023182
O          -2.40894152608846   -1.26871766264511    0.35789911148595
H          -1.82816979476832   -2.03757535957747    0.40539598384961
H          -1.81036550093202   -0.22398288499522    1.48086197842969
H          -2.14485914270714   -0.84531907055133   -0.48052683058592
N           0.10265888231325    2.00384068941657   -1.36835452735435
H           0.86654220621524    1.31734536693047   -1.57724272940299
H           0.14486063541240    2.83771122123276   -1.94323058648271
H          -0.73011151244900    1.41393966236746   -1.55938461258832
