    26
        -50.46999642  Gyration_radius:  2.46253285925 Dipole_moment: 3.038
 S           0.78690282300703   -1.82585043657624    0.97500894246889
O           0.45912747602475   -2.01296982407911   -0.41537569521272
O          -0.25743563492847   -2.17224630005881    1.90830556355997
O           1.32427831033149   -0.47226841434829    1.20303906204437
O           1.99639929739106   -2.80431178775639    1.32046907480447
H           1.60416084432959   -3.34086747235043    2.00090758529003
H           0.29123780028300    0.65476065110120    1.80037445672542
O          -0.37001013169067    1.34340125898818    2.05405764278371
H          -0.25338817773831    1.49649084850535    2.99234153894229
O          -1.89907017091199    0.58433377095618   -1.56795719241711
H          -2.79366798762235    0.57982846669914   -1.91037757221312
O          -0.36706613475997    2.56528623915547   -0.42774888794392
H          -0.46321737228150    2.33572170291697    0.51146480935763
H          -1.02783067332843    2.02388518448369   -0.89813904206436
O           0.32218283728927   -0.60779210941032   -2.65309850307812
H           1.21753284418136    0.34243259926012   -1.79658582836689
H           0.36695064764594   -1.33363797507417   -1.99948847610021
H          -0.55076634075494   -0.20402416919078   -2.49620116885066
O          -2.02002745627222   -0.49866171226204    0.81661334290918
H          -1.49380716647154   -1.25703168449006    1.12936491917370
H          -1.71964473804051    0.24498467362361    1.36204196358078
H          -1.93258907370152    0.07622056589901   -0.71403675893817
N           1.63251733547333    0.93933560412922   -1.00663458071134
H           1.63335554902715    0.33642772507118   -0.14177878559754
H           0.95045333863404    1.73201015466700   -0.82251302078707
H           2.56342194488191    1.27454244014082   -1.22405338935956
