    26
        -50.46999649  Gyration_radius:  2.46249668258 Dipole_moment: 3.040
 S           0.51763290097686    2.14094613556495    0.22671748511894
O          -0.12837004440752    2.75452750328040   -0.90805753596959
O           1.64955854535668    1.30574002043462   -0.08454339993271
O          -0.43024722187702    1.42477064849752    1.09931606317968
O           1.04494859196580    3.35540568840635    1.11360063233845
H           0.80861996359422    4.09492542141679    0.56399453766380
H          -1.74537115954011    0.74916925883701    0.38623090630796
O          -2.46802804650578    0.25777394340209   -0.07433458395436
H          -3.26505110643457    0.77528345367565    0.04557837472176
O           0.55435240098622   -1.87343788498885   -1.60843859043089
H           0.68874328985205   -2.29686701967680   -2.45710629696709
O          -1.33977171826255   -2.23079079326376    0.35517452947666
H          -1.92662540881132   -1.48034210241452    0.16387124254283
H          -0.73588586258557   -2.29148127237227   -0.40811782064448
O          -0.60365010673968    0.42474327412354   -2.11000930963589
H          -1.44457926219229    0.30294742303644   -1.64236245369380
H          -0.28935798874721    1.30057317030098   -1.82011231117653
H           0.21679236013774   -0.96048591969022   -1.81091818330595
O           2.45593139975514   -1.19209108387010    0.24982798899058
H           2.41971239462519   -0.23137075139231    0.07168982788205
H           1.33380369304942   -1.12635053926494    1.33403170483474
H           1.95518408223866   -1.58638412960517   -0.48737961924385
N           0.41524101873789   -0.95690320994254    1.86306024282974
H           0.50550499152104   -1.12664040399503    2.85768339350154
H          -0.32291150389118   -1.57369716919078    1.41331215689538
H           0.13382378720502    0.04003632868969    1.66729101867484
