    26
        -50.46999725  Gyration_radius:  2.46273425854 Dipole_moment: 3.003
 S          -1.23625814515743   -0.54690357337755   -1.75440254722969
O          -1.94892700652683    0.67410639565552   -2.04245259058418
O          -1.63157898831727   -1.21939908348285   -0.54287943786142
O           0.22668941092188   -0.37394356615164   -1.79756157854524
O          -1.56383106540963   -1.51898772661865   -2.97393829168343
H          -2.20157296306678   -0.99903593211129   -3.45099817393538
H           0.82335646087744    1.09511916960445   -1.37165921059959
O           1.16801567268168    1.94612047166129   -1.00735875459076
H           1.41634630375955    2.48143064419770   -1.76183547529498
O          -0.39789521721212    0.60469072370197    2.42488951859673
H          -0.81281737330667    1.04401511181534    3.16813845111207
O           2.11756420886746    0.80837609902388    1.32808396759928
H           1.92520546455069    1.38056772317691    0.56665448179859
H           1.31503545846832    0.83138203769697    1.88159584685698
O          -1.28063725635867    1.81216253374818    0.27171167091903
H          -0.81751243486869    0.99270075339439    1.61133093337343
H          -0.44982410175382    2.16102610173229   -0.08697028668732
H          -1.71254333445670    1.38350055622368   -0.48965882420190
O          -0.56290645655173   -2.04583821154569    1.73179237507150
H          -1.15515859523972   -1.90579620376311    0.96636552302086
H           0.73276379216444   -1.87592365210864    0.87786671499849
H          -0.57285058458839   -1.18924457990501    2.19634687900795
N           1.49735249057865   -1.50782148335500    0.22004925265841
H           1.92181905392588   -0.65145890556662    0.68251109007944
H           1.00833306651766   -1.16838650223708   -0.64996870642218
H           2.19183215950817   -2.21245891141270    0.00234717253435
