    26
        -50.46999634  Gyration_radius:  2.4625068568 Dipole_moment: 3.044
 S           1.98713947070558   -0.76263099533643    0.61072206203953
O           2.82224291391852   -0.43764562449954   -0.52004977489156
O           1.01718607336778   -1.80326590929035    0.38309571896147
O           1.34358382219837    0.42581584152454    1.19935918612915
O           2.99075632711260   -1.27796768854711    1.73616667047963
H           3.81687905086092   -1.25244886482157    1.26539784904829
H           0.97822051494454    1.66282967289658    0.18414996827331
O          -1.74645793703138   -0.58078207327638   -1.73749278237298
H          -2.08785416949049   -0.81435777869682   -2.60148791985456
O           0.66767473035774    2.34645625170337   -0.45777379472705
H           1.29334950401667    3.06971352534711   -0.40510175844957
O          -2.00527225323321    1.68454270521085   -0.19681709143473
H          -1.15171546743419    2.11199274537439   -0.37814449705390
H          -2.07842377616141    0.96093790242701   -0.84642348573818
O           0.75254752759925    0.12392094688223   -2.10118878936013
H          -0.77349553438814   -0.42032167805069   -1.86426232785951
H           0.71913236545302    1.04711390594274   -1.80580383011532
H           1.52640930510829   -0.25003785591621   -1.64166750566817
O          -1.60090180685332   -2.16923809430443    0.49587219213770
H          -1.82194899191394   -1.76768750623947   -0.36414230103142
H          -0.63353472982127   -2.30414279769123    0.45111363853489
H          -1.47337741589241   -0.88185344891793    1.37045714861762
N          -1.21554343483584    0.08741067228542    1.75322393887367
H          -1.64769929914201    0.80577704300740    1.10156698818266
H          -0.17019656971413    0.18237799788063    1.65456178840880
H          -1.50870018973144    0.21349111510734    2.71466871886752
