    26
        -50.45234088  Gyration_radius:  2.45884010719 Dipole_moment: 5.679
 S           1.62603890538581    1.28402594324925   -0.68606369071091
O           1.50214806598802    0.91671849550016    0.81970212488483
O           2.42182325206830    0.13086044795760   -1.28855803528477
O           0.27823942920970    1.26903809735442   -1.23363248915025
O           2.32600413032728    2.50693351534192   -0.82389008198265
O          -1.62387970673836   -1.50851084021699   -0.57753281073842
H          -2.21208724886308   -2.24850794738904   -0.73248690632317
O          -1.65475024381204    2.43809320661420    0.13369797205661
H          -0.91450443133261    2.12775056655336   -0.43275109828461
H          -1.42114430423330    3.32127348869081    0.42198049961271
O          -2.13268362399317    0.52027110121093   -2.17074879089078
H          -1.20096681391994    0.79550619818917   -2.16032618527617
H          -1.86670524533228   -0.80401277743330   -1.23496920972560
H          -2.59353651380657    1.18751811493218   -1.65167717782810
O           1.09764419957309   -1.90075997709480   -0.62002069097129
H           1.89881392204320   -0.73258107763680   -1.08472276938018
H           1.26392172603038   -1.96701568406428    0.35589235412974
H           0.13684000427441   -1.77061389392232   -0.71576088675434
O          -0.87666382622573    0.18227907620107    1.43018416196077
H           0.56988950537666    0.59178866104554    1.06104678595168
H          -1.34622023548765    0.99597262582347    1.16281358453319
H          -1.16648993788627   -0.50061322068204    0.79688446795953
N           1.44194709997461   -1.79517005341040    2.05237195614340
H           0.56361438934126   -1.46902900656333    2.43829261346732
H           2.09577448447485   -1.02288190418571    2.10685587490560
H           1.78693304756589   -2.54833317607045    2.63341842769373
