    26
        -50.43974046  Gyration_radius:  2.43006589361 Dipole_moment: 3.740
 S          -0.65693688965611    1.60639879814713   -0.49370057993340
O          -1.06939173116565    0.40722458287001   -1.17733804601642
O           0.68334034323263    1.51557656191176    0.07892379377916
O          -1.61365973973333    2.05376028098952    0.51056973622963
O          -0.59835963810019    2.76210879159334   -1.57847012401856
H          -0.68874959876909    3.55898005675119   -1.06430945594289
H          -1.60215127827958    0.98489759796696    1.63710290803965
O           0.37452232028185   -2.64157989288433    0.74567727691358
H           0.29059582108568   -3.34968965678572    1.38556530938596
O          -1.48622604149671    0.26987807209132    2.33260465559354
H          -1.67338897013120    0.68995477229474    3.17477136409721
O           2.36168337689750   -1.09169301539492   -0.48467596798371
H           1.92776156137204   -1.91574187782963   -0.71566707589878
H           2.16583285362194   -0.47407275288211   -1.21282372694625
O          -1.99198721843617   -1.63233251449660    0.26924059280938
H          -1.76055013349691   -0.95565927301638   -0.39837381769156
H          -0.54702523212085   -2.37546142982080    0.48062106606588
H          -2.21069294499682   -1.13632986931879    1.06641109450902
O           0.94103909018736   -0.33477802180939    1.71645989910937
H           0.94984022973400   -1.24376533164202    1.23393813601968
H           1.03044804035460    0.39739372686562    0.97345033861936
H           0.00489263480774   -0.18124672401033    2.07626362500840
N           1.46067180385972    0.56864741711939   -2.54711161277574
H           1.70513434296876    1.47148118985639   -2.15964223032095
H           0.49133833356118    0.40659859818642   -2.29338034617672
H           1.51201865440208    0.63944992325597   -3.55610681245437
