    26
        -50.45234088  Gyration_radius:  2.45882921804 Dipole_moment: 5.680
 S           1.79931566514996    0.80482209603740    0.93650521132076
O           1.38770083395020    1.04510610210443   -0.43809498621679
O           0.49875909673734    0.62382592774769    1.76907137297407
O           2.48948016290337   -0.55275712443131    1.01999846775571
O           2.60216448334439    1.81591817765403    1.51753952391912
O          -0.88809372852611   -1.14572018070180   -1.77276021098475
H          -1.29361018960004   -1.74348595671054   -2.40192371234940
O          -0.57486603634157    2.75291339015122   -0.88970193538273
H          -0.45526836054516    3.58351729025560   -0.42765190918890
H           0.23954827792907    2.22759215612285   -0.72860150088026
O          -1.58238247356370    0.51704426320527    0.27679739416290
H          -1.42950957507706   -0.13992812543845   -0.42777795657086
H          -0.32682651136286    0.54623637764049    1.18127239474980
H          -1.48662966442352    1.38638726675891   -0.15811616178909
O           0.45913185165804    0.77999232841772   -2.95180024215792
H           1.08197761058040    0.83434848234955   -2.20813352037878
H          -0.38173290201944   -0.47215242103986   -2.29938929876643
H          -0.06971481109742    1.58224330263961   -2.89089221020276
O           0.72237528496198   -2.15252340366690    0.21602918426828
H           0.06809041360419   -2.15973549774369    0.96190049322642
H           0.23605499278484   -1.81585633292792   -0.55818243976415
H           1.82385896538962   -1.24963588974160    0.65691707506606
N          -1.07364801060716   -1.86869925972142    2.20732922881868
H          -1.46796946988977   -2.62021475537076    2.75828404231677
H          -1.83359847725030   -1.31640755840687    1.82769504321903
H          -0.54460741868712   -1.26283066516735    2.82368666286796
