    26
        -50.46596341  Gyration_radius:  2.52218768574 Dipole_moment: 2.168
 S           2.04240387271758    0.26226143183305    0.65648774588693
O           1.26669039236043    1.28738162932987    1.35121108838531
O           1.61453301852567    0.10890485312339   -0.72198383286688
O           2.12782301324978   -0.97366814990554    1.39907451610192
O           3.52523234133368    0.82868451346662    0.57135214678601
H           3.88620591345370    0.62029409591977    1.42714316158658
H           0.78298139730850   -1.89717800711051    1.39324299891587
O          -0.08638443619760   -2.36356605551815    1.35126993981284
H          -0.01815593879796   -3.11476992551583    1.94260999362920
O          -2.21771093074411   -0.62252446966590   -2.17782102716147
H          -2.90475882279418   -1.28097883189482   -2.28417989263860
O          -2.31298605819983    1.36399133301636   -0.42245596265075
H          -0.99978492753733    1.93135271915605   -0.69173524552068
H          -2.39946402569697    0.65201572396503   -1.09862041924361
O          -0.05463071195329   -1.93230175073451   -1.38241514952814
H          -1.39456701655530   -1.11995787861815   -1.94498889573867
H           0.64408377886358   -1.26382178461410   -1.28326461510980
H          -0.20018549395636   -2.27121937508648   -0.48546179908281
O          -1.20439414822783    0.15136841018358    1.67467608527490
H          -2.10359031222359    0.90399473876695    0.42355142339871
H          -1.01870306063953   -0.79750583834096    1.59982976247408
H          -0.33661082623815    0.58387755522306    1.73208846989677
N           0.07280839022848    2.21424249665852   -0.77132068940047
H           0.21856474418045    3.09149570352600   -1.25742810183980
H           0.60156347190983    1.42679375083405   -1.19592186720720
H           0.46903636562146    2.21083312198931    0.19506016587140
