    26
        -50.45488107  Gyration_radius:  2.47424679728 Dipole_moment: 0.413
 S           1.20273434503071   -0.58890345848536    0.36462761004494
O           1.34508005047836   -2.09209102116483    0.50660653793347
O           1.13711500233376   -0.22610661641955   -1.03621079194962
O           0.06495441098230   -0.12521053917448    1.12076557821639
O           2.49545033395281   -0.06559130911418    0.97500528096368
O           0.85137963485853    2.47027360361360   -1.21267907121617
H           1.04981209013399    1.54224790039298   -1.41577156731001
H          -0.10506414025528    2.44965180735929   -0.96568012085708
O          -1.19105037719304   -1.06347961266982   -1.98018812733652
H          -1.07897610632131   -1.29500450249753   -2.90438179087018
H          -0.34395783790318   -0.66217922749763   -1.69267439194800
O          -1.87017777296724   -1.74885251682427    2.00066085741392
H          -1.62560810907359   -2.04959064799068    2.87749319147603
H          -1.23806200728856   -1.04142708778378    1.76555563907742
O          -0.88274262418109   -2.98220045567353   -0.13638918808840
H           0.42502420308964   -2.55731126356205    0.22259097018558
H          -1.41462080834842   -2.69587522016202    0.64237120793892
H          -1.14365816335900   -2.37707043538830   -0.86752336090967
O           2.26495717352497    2.43574671597791    0.93858108679114
H           1.68069917565236    2.56687597068404    0.12315333974182
H           2.42315893379445    0.96566418059686    1.02786506129764
H           3.10779353096686    2.84838008235250    0.73462784914753
N          -1.60946142667300    1.75130769581097   -0.39106907811537
H          -1.15985372463582    1.16856849074166    0.31124201753790
H          -2.02082141871241    1.11891816113354   -1.06809372097428
H          -2.36410435790205    2.25325930573367    0.05951501180292
