    26
        -50.47304686  Gyration_radius:  2.48575774588 Dipole_moment: 2.167
 S          -0.70318215776736   -1.98723408960925   -0.23865685684265
O          -0.20323918097442   -1.61929204419396   -1.55828702421959
O          -1.35301299222457   -0.87678034840951    0.43123740444828
O           0.30686107189779   -2.64363865277719    0.56584888517247
O          -1.84255727721811   -3.06270128795946   -0.48337140345074
H          -1.34367163740859   -3.83699294548307   -0.72141110402910
H           1.43940198347566   -1.65489114676687    1.12959421969637
O           2.10725670065790   -0.97164687885672    1.39629334505164
H           2.84096203603346   -1.45183645273722    1.78333228393218
O          -0.31376644142010    2.86290432341040    1.32548681565238
H          -1.19838679183383    3.12974262300872    1.57977348321142
O          -1.88935110255407    0.41577285007632   -1.77881411227580
H          -1.35506869019464   -0.30446785018477   -2.15598245319667
H          -2.02857746541433    0.08540688982487   -0.87007946817228
O          -0.05051449393065    0.47793968220029    2.34828658896767
H          -0.62987017568416   -0.04335698155528    1.75984322967081
H           0.83199131692185    0.09830787359948    2.21999719895807
H          -0.15306983181213    1.99688288081294    1.79592564701617
O           1.80585808653546    0.05795069068485   -1.11257955680665
H           0.88444650340978    1.33487553173458   -1.13295048743544
H           2.08610525236343   -0.19090002304555   -0.21360306198384
H           1.16360585519583   -0.63330036168284   -1.38070460560412
N           0.09855678615913    2.05620978619466   -1.17364031135158
H           0.32514592353824    2.79472057257617   -1.83006999847094
H          -0.05987532479588    2.44732863632237   -0.20521470741010
H          -0.76604796294432    1.51899673277865   -1.48025396049816
