    26
        -50.45234087  Gyration_radius:  2.45884923203 Dipole_moment: 5.680
 S           1.14593025007367    0.20297881895104    1.84597372257874
O           0.28709072290157    1.22790807488591    1.27264726854310
O           2.20757548286115    0.67921577322359    2.65258427900757
O           0.28568540379224   -0.79598857917501    2.61313296271165
O           1.71773648252733   -0.61970056011053    0.65705494396204
O          -2.04331135966886    0.18436085010881   -1.01650102872317
H          -2.88909793032405    0.09594210727713   -1.45745932176272
O           1.16046071672627    2.58620556675106   -0.81633601801772
H           2.04698441396013    2.92677325207754   -0.69093538726886
H           0.89823744065622    2.17787043832551    0.03786718366333
O          -1.73654549372419    2.55122180242793    0.08689285570034
H          -2.02375106435461    1.09006352407517   -0.60819187582043
H          -1.17088248722228    2.18117864661841    0.78475939757195
H          -1.13907466096920    3.05648756809480   -0.47411283028722
O           0.62501094011073    0.03220650211141   -1.56771868525098
H           1.26445850976985   -0.39013762876765   -0.22334757475333
H          -0.34405662671323    0.01030166862768   -1.45889205906517
H           0.86173344553162    0.97991296066783   -1.56694674872624
O          -1.28286870644478   -1.68028047523847    0.85638512551551
H          -1.62201993787898   -0.98010713691232    0.26992825076158
H          -0.69345844465585   -2.24285966239990    0.29010670668709
H          -0.41230270676345   -1.16111838191947    1.94982578103471
N           0.49144954854718   -2.95939917232966   -0.72041633110021
H           0.60436426553192   -2.38375105114208   -1.54662838290706
H           0.43327577401770   -3.92721108989488   -1.00990430652453
H           1.32737601170268   -2.84207382631767   -0.15976795756037
