    26
        -50.46194787  Gyration_radius:  2.51170902371 Dipole_moment: 4.773
 S           0.52089633784683    1.36963193980984    1.53464715402043
O           1.86609638301118    1.35960869891599    0.96917314894865
O           0.03672504735729    0.03608835154352    1.81979941921937
O          -0.38965683069306    2.16835337752191    0.73371805212295
O           0.62923506314081    2.09685996308499    2.93878660268180
H           0.81392806954394    3.00605881843478    2.72225035421653
H           0.14746964807635    1.61186612619736   -0.75976015539012
O           0.44668497214463    1.27512215735095   -1.62864329812668
H           1.27449191713452    1.72756043721124   -1.80139925866667
O          -1.13068795587221   -2.65232659984040   -1.14188672182392
H          -1.84535486856241   -2.89222357002491   -1.73234631509602
O          -2.51556427029547    1.31518483972563   -0.76510936835993
H          -2.01572375766893    1.27075536686125   -1.58475852097427
H          -1.93229334502494    1.77174436891802   -0.13672993257195
O           1.06043345615998   -1.36259105542046   -1.83134714203574
H           1.66386300960906   -1.35818275678166   -0.47840184158565
H           0.24263197086984   -1.89936935915688   -1.68973327210400
H           0.76345593674469   -0.43322515492750   -1.90576312266552
O          -2.18030204589025   -1.00855616903290    0.61644053544198
H          -1.46936348841350   -0.66982527288760    1.18437742362634
H          -2.49811701784990   -0.23090888855685    0.11693215957667
H          -1.54061239898206   -2.08582653499165   -0.43476592410867
N           1.97517625574067   -1.19040842887205    0.56294541571057
H           2.71231039814610   -1.81730605215521    0.86513951654665
H           1.13721721886219   -1.23862085035229    1.16648688203361
H           2.22706028491662   -0.16946378261566    0.65994821940574
