    26
        -50.46194825  Gyration_radius:  2.51169925165 Dipole_moment: 4.755
 S          -1.34453699674877   -0.27913654847465   -1.61806667737329
O          -0.25454493884459   -0.97576044111350   -2.29301159259265
O          -0.95141279826159    1.03464907257429   -1.15568492676379
O          -1.95409149724191   -1.10664883680370   -0.59216445408993
O          -2.46613265586034   -0.03253798013103   -2.71050556249861
H          -2.81825764511774   -0.89932055164883   -2.89023412102508
H          -0.51332826737396   -1.71227178381300    0.02925703840740
O           0.32484215450945   -2.05088009496958    0.40427228508039
H           0.62014324822988   -2.72557704013967   -0.21005891596171
O           1.57534242467735    1.65180699190220    2.09986264097127
H           1.61246686516819    1.68080480599859    3.05634709902914
O          -1.88567791230191   -0.75619803924761    2.12206932439214
H          -1.13499568290024   -1.34180283060603    2.25346379667724
H          -2.15558320563599   -0.89339636196219    1.19917640544632
O           2.42295217127633   -0.33697177952862    0.59371823405339
H           2.06651075096949    0.29042355692141   -0.70028433216091
H           2.20172188019647    0.37931521007386    1.23776445961135
H           1.71268203002821   -1.00464237160016    0.67820744450322
O          -0.97646004491182    1.73130998461247    1.48418817973070
H          -1.38209923499398    0.93366636921442    1.87725391868462
H           0.61511001262968    1.75240146122411    1.86186699491624
H          -1.06577831158021    1.61245308240596    0.52468748434029
N           1.60039171622740    0.69047366769171   -1.61242742052417
H           2.26180610426009    1.14298819860675   -2.23325744492311
H           0.82182346866247    1.31222125051024   -1.33610641097533
H           1.06710636495673   -0.09736900176512   -2.07033342690349
