    26
        -50.46194840  Gyration_radius:  2.51157800108 Dipole_moment: 4.764
 S          -1.36483541483078   -1.56298309090576   -0.44516751027644
O           0.00322137279324   -1.57084889656321   -0.91708185277821
O          -2.17424641045398   -0.55066524168479   -1.11532894142737
O          -1.48920915468550   -1.47716305155955    0.99911491156340
O          -1.96988203492039   -2.96855277282610   -0.85810254509457
H          -2.81277631953593   -3.00438227903541   -0.41555919067189
H          -1.40604187096753    0.20038552184057    1.08664736488874
O           2.76968367753126    1.39270901973385    0.02795590977463
H           3.37673308329937    1.70298325147051    0.70038484139258
O          -1.33825653144915    1.17515028739632    1.14166283731133
H          -2.19952784512662    1.50222184355309    0.87516892525286
O           0.41540401362468   -0.72499453471618    2.81707256922394
H          -0.27889918137897   -1.19126282902407    2.32320409297369
H           0.12937733990272    0.19215530350489    2.84625286433631
O           2.12516565718899   -1.05661403922542    0.72234270631025
H           1.67417892795267   -0.99260063322575    1.58710280228512
H           1.44688537947193   -1.38068695511300    0.10775821233144
H           2.57885754003583    0.44265689496644    0.25120404083678
O           0.40940272346404    2.43005910424736   -0.51600215701678
H           1.33121317519822    2.16136896739952   -0.28214050820832
H           0.08601214503396    1.49117379064240   -1.61610651221161
H          -0.16226053638307    2.08300635354419    0.19822613382608
N          -0.20308860177166    0.65684989950953   -2.27128190777599
H          -0.12705709732470    0.87887430859991   -3.25747622646040
H          -1.17065509897143    0.34604730217417   -1.98478531203819
H           0.35060105220516   -0.17488752479475   -2.00506554829238
