    26
        -50.46742656  Gyration_radius:  2.402015788 Dipole_moment: 4.782
 S           0.37905823948868    0.86302455295514   -1.44060132098836
O           0.57328061007358    1.39154313031029    0.03173332028669
O          -0.58342781427042   -0.23593228691156   -1.36409941565973
O           1.65919625186471    0.43095786658293   -1.94632274552824
O          -0.19949831281481    2.02494992416767   -2.11081465970081
H          -1.09329261297822    2.49679359251377   -1.08678662824441
H           2.18743500533852   -0.91234663024576   -1.23364760376664
O          -0.66650991656574   -1.46023844389606    2.01191172189537
H          -0.98706237895343   -2.09853483202732    2.65004999058839
O           2.50362421657332   -1.68274716465332   -0.69184513183621
H           3.39637922991967   -1.86145414989689   -0.99121757296265
O          -2.24289259037505    0.31571345150161    0.54902452769053
H          -1.78162750967375   -0.12986598509037    1.28002217039099
H          -1.75459564487203    0.00197185738592   -0.25093630381837
O           1.77129539843585   -0.30724274429144    1.52920393795712
H           1.10521394398905    0.75644200919224    0.60853854980541
H           0.97125638158611   -0.73652778143777    1.88291874159787
H           2.14473567414549   -0.91345080141748    0.86061481267994
O          -0.08140495560916   -2.60337817651786   -0.27099266134159
H           0.87899195929380   -2.62311155336239   -0.38891769522403
H          -0.50786055319297   -1.96761329828736    1.16572990424706
H          -0.36721860009286   -1.84514342769662   -0.81996672164541
N          -1.70460955430982    2.75004220310095   -0.20003578945235
H          -2.51634996500227    3.30672022168234   -0.44880789518073
H          -1.09912747421747    3.24237104457833    0.45071026020666
H          -1.98498902782243    1.79705740175420    0.22453419799111
