    26
        -50.46332805  Gyration_radius:  2.58152401615 Dipole_moment: 7.580
 S          -1.82064382273115   -0.15866201814397   -0.82039738087021
O          -0.74780304232400    0.26441547344285   -1.73868381557788
O          -2.08560830443786    0.82132935123231    0.19539655828193
O          -1.49207718173232   -1.47900583642520   -0.27089125669648
O          -3.11127293948142   -0.32751757400275   -1.68563682294781
H          -2.84023125197241   -1.00918983902489   -2.32900933518667
H          -0.45705204355770   -1.49475335752505    0.89865941101446
O           1.15145039054723    2.75774684260877    1.28318863965898
H           1.76118836061514    3.02988617635733    1.96967542607273
O           0.21487904340791   -1.52364879158747    1.63978146878809
H           0.00866047011092   -2.31905374225935    2.13422057938074
O          -1.51828158745393   -2.07896000409422   -2.88870431109503
H          -0.94551418604943   -1.30558437598806   -2.97571727385687
H          -1.42141556255718   -2.34072258121916   -1.96027123258698
O           2.54745876834073   -0.97676566363270    0.47208113987821
H           1.70356241872615   -1.28009161079476    0.87858589246685
H           3.16092062521729   -0.84374395555433    1.19671755931379
O          -0.54314536595838    1.07898783241807    2.33899370815952
H          -1.24337353584991    1.09416505142429    1.65469763566938
H          -0.19675673075135    0.17452968894378    2.29836785128326
H           0.45266015562764    2.20462635935752    1.73331813242068
N           1.49966890851144    1.15210007874555   -0.81187320297414
H           2.02727260650429    1.54454172060145   -1.58434447266151
H           1.98792844454547    0.31930501533942   -0.40658223874902
H           1.36902342226893    1.86541843573099   -0.04965462331508
H           0.53850194043364    0.83064734405514   -1.17191802587485
