    26
        -50.46507290  Gyration_radius:  2.55403907894 Dipole_moment: 4.283
 S          -0.25277423440544   -0.80437154212398   -0.53746337964380
O          -1.48400988641771   -1.58535109481736   -0.55799601278174
O          -0.14328421765186   -0.08041912361113    0.73648847983845
O           0.93884416088925   -1.79353473825318   -0.60192455496658
O          -0.15505854897740    0.11407226616569   -1.66324585596847
O           3.61396032182010    0.95399725843174   -0.47585177827738
H           4.55977221371276    0.89725058490499   -0.33243819058171
O          -2.02502186678778    0.03752316083124    2.58359581898143
H          -1.24023111911808    0.03839340111876    1.98715163244353
H          -1.91951942823487   -0.72622219437473    3.15290941397090
O          -1.64143104755978    2.02601000993449   -0.69007918967077
H          -2.77032739846094    1.00411602482521   -0.16950795665011
H          -1.10198950508030    2.30474911759498    0.05484405458993
H          -1.06920019899631    1.39493186967189   -1.18982166682586
O           2.34447173098344   -0.54544101266627   -2.29890388596819
H           1.57445377693888   -1.41573519676735   -1.30294710254168
H           1.52694652369322   -0.05456555778233   -2.47948274435802
H           2.89227605629159    0.05237487891948   -1.74042714343684
O           2.38286892439339   -0.42967717254334    1.46180245824727
H           1.44369696506444   -0.21101442641873    1.28755110583304
H           2.47133300983339   -1.34758082051570    1.19080873636636
H           3.18812864464631    0.54391694251600    0.31173952521509
N          -3.23002287864289    0.12971951016573    0.21966076417783
H          -3.06396941876571    0.12126496410787    1.25167387360242
H          -2.63073244544430   -0.67644132021407   -0.16741737637819
H          -4.20918013368903    0.05203422092290   -0.03071899530374
