    26
        -50.46134443  Gyration_radius:  2.51461667964 Dipole_moment: 7.808
 S          -1.79159414017049   -1.16143048149231    0.61329947600580
O          -1.42174040734362   -0.85648256138419   -0.76458235762035
O          -2.99040843774451   -0.54790847392206    1.07791441738282
O          -0.63667344037739   -0.90022685331475    1.49952322189120
O          -1.99190585018343   -2.73496575877460    0.65205360314272
H          -1.29734220527429   -3.06506308111412    0.08994391390728
H          -1.19395208451364    0.60590628988552    2.15220435862009
O           1.05513120522714    1.98388120203123   -0.96743489278151
H           1.30151019678037    2.90920071352019   -0.98192898327950
O          -1.55575299856654    1.50640563542665    2.24186381700920
H          -2.50159109383385    1.36361989434722    2.34430690643105
O           0.72562484877885   -0.52890022105415   -2.32977298472654
H          -0.11633866374704   -0.71990518045555   -1.87259052214777
H           0.87800648142077    0.41350590877213   -2.18203964691744
O           2.59402101677497   -1.75058033661038   -0.96827694377045
H           1.88521534507369   -1.41597987519716   -1.58314418109892
H           3.40620443238095   -1.76183414256860   -1.47616558091015
O          -1.44640799957870    1.80120292705897   -0.43786997997724
H          -1.54302341278948    1.87128320034136    0.53616873830264
H           0.05448584280938    1.96714819594275   -0.81282197950336
H          -1.63760480633942    0.86969251497262   -0.65046542607907
N           1.66569606325849    0.04022506868704    0.77609268972506
H           1.49835803193716    0.87293197377134    0.15860081224435
H           0.71253023062779   -0.36336099855765    1.05805435355804
H           2.16560258563121   -0.69362936188975    0.21619012351114
H           2.18194922972254    0.29526381156539    1.61087704709190
