    26
        -50.44689604  Gyration_radius:  2.49184676242 Dipole_moment: 6.883
 S          -0.12548027906785    0.87802253994171   -2.24569339566457
O           0.45350122634061   -0.34626988152234   -1.72259664961292
O           0.50165676961883    1.42591106265840   -3.38971395430550
O          -0.11877522493619    1.91270702592106   -1.06910015383033
O          -1.62926649763638    0.68005816142013   -2.45922099683940
H          -1.91362846483987   -0.18794593158870   -2.00466922589445
H           0.85516951484653    1.94291272025693   -0.79979743839353
O           1.69310729543277    0.53125317255093    2.00472399106304
H           2.24209282206097    0.39234764128746    2.77689853941440
O          -2.00295622757204   -1.08018140443655    1.33031567742910
H          -2.86554562863359   -1.07137355498587    1.74744491234666
O          -1.94566808695764   -1.54435976250491   -1.30031872864850
H          -0.99795729811055   -1.65699757717989   -1.45447973943170
H          -2.04761568460057   -1.41075154690254   -0.32822400189833
O           2.29697956831450    1.46477194627049   -0.44367086562447
H           2.20406904618875    1.19955002226489    0.49827206369172
H           2.28664660986555    0.65398414885483   -0.96337951636279
O          -0.93291529751015    1.32121738197466    1.54240229938568
H          -1.63274948106895   -0.16547760376738    1.44199929168040
H          -0.02283525375864    1.18536313136511    1.85456500427942
H          -0.84957611769638    1.69310513256109    0.65320311038044
N           0.90822780378342   -1.68385700842219    0.83582963746196
H          -0.03691827885656   -1.86474218735733    1.15849211259904
H           1.40555998242534   -2.56438863539115    0.80759469650944
H           0.83842073810554   -1.32938428358058   -0.11630770112715
H           1.43645644430137   -0.37547472964060    1.64543103135232
