    26
        -50.46800948  Gyration_radius:  2.45872864074 Dipole_moment: 4.787
 S          -1.13172625388926    1.33364625071743    1.10727563259284
O          -1.09189360127316    2.18120628972860   -0.07687512866081
O           0.12446222575565    1.27642014418693    1.81093415995342
O          -1.66084332566404    0.01120767455486    0.77058978911404
O          -2.17738709138034    1.99038228242897    2.09590659496521
H          -2.95217199464280    2.09109100854632    1.55253000994820
H          -1.25875227106417   -0.07670931455798   -0.76694978599014
O           1.63925437528172   -0.90054888945261    1.47568232910077
H           1.15967680073197   -0.12048821662045    1.81943270949902
O          -0.89751044990506   -0.03725122077396   -1.69122914263014
H          -1.05566802403117    0.87645823648264   -1.94861520798471
O           1.50411582577586    2.54780126526483   -0.21699541704686
H           0.52057979455077    2.55987693306308   -0.25815369677497
H           1.68401494059398    2.50877870899613    0.72843561653762
O          -0.34757668920900   -2.74636802716750   -1.70362219653966
H          -0.65855723644385   -1.84936949851543   -1.89422833863611
H          -1.02179359400817   -3.34780074827406   -2.02293383596811
O          -0.46387800830372   -2.43376249000013    1.07464232503336
H          -1.03832216812031   -1.64932437152529    1.07969922028514
H          -0.37444303075257   -2.69320726581653    0.14190534500061
H           0.95929700309867   -1.62036693686716    1.45981747806106
N           1.72712463760307    0.00777074201574   -0.93634227433529
H           1.77195620245346   -0.47067714225332    0.04693445809988
H           1.79871046559501    1.04914377175296   -0.75303916892349
H           2.45871131382105   -0.32917593346875   -1.55160084789980
H           0.78262015335847   -0.15873325253077   -1.34320060684504
