    26
        -50.46995682  Gyration_radius:  2.40460068876 Dipole_moment: 4.969
 S           0.29190268033806    1.18822845157546   -0.84319542070124
O           0.84553847131059   -0.16106865204646   -0.81987800607277
O           1.14351670560076    2.11082850561005   -0.10379463563158
O          -1.07055563549271    1.17961998347180   -0.29066082144527
O           0.22038288736015    1.67542394825217   -2.30090125382145
H          -0.17672235257083    0.91330443888683   -2.81652997542608
H          -1.10919373669132    0.79886312121234    1.24807116517014
O          -1.05000381848094    0.49955154057630    2.19822909809675
H          -1.76072323935960    0.94831392600943    2.65857710419191
O           2.32922987918178   -1.52801442537819    0.95688189308905
H           2.14104637529424   -1.14826349841695    0.07970996976366
O          -2.25031296482829   -0.97955065664683   -1.31070123375430
H          -1.83873259565057   -1.66920730652417   -0.77120163514373
H          -1.96670216472758   -0.13486793375767   -0.90492614171060
O          -0.96642464036424   -0.27696710193931   -3.49824723130720
H          -1.63389462037838    0.06214377922308   -4.09879025128868
H          -1.45966607693392   -0.68258088264064   -2.73826825742308
O          -0.45116813884032   -1.90439797822233    0.71942411532495
H           1.57482556287603   -2.11746028932407    1.11253387921653
H          -0.83609269193553   -1.33449250695929    1.39511490901564
H          -0.02805847314754   -1.29771491874897    0.07590103609645
N           1.62848007452646    0.77497339274237    2.04274747773162
H           1.54251868783541    1.39647997259525    1.16503104368606
H           0.65187734482036    0.65363658307899    2.37930184515831
H           2.00633060610991   -0.16961514602881    1.72085306381211
H           2.22260186414043    1.20283363342096    2.74471827338617
