    26
        -50.45759471  Gyration_radius:  2.57499006197 Dipole_moment: 5.980
 S          -1.90987110292531    0.65714231356470    1.64697121409999
O          -1.42081024209680    1.91691228984562    2.11268498343131
O          -1.07963484763167   -0.48910233384714    2.02930463598451
O          -2.14798545632932    0.63000582395121    0.20265390804038
O          -3.32705913857729    0.40486460697686    2.32412958737490
H          -3.61698854484972   -0.42067467958288    1.94620259643779
H          -1.03965204499959    1.73820096798379   -0.10910494591678
O          -0.23067506097159    2.22891762543613   -0.40916201996865
H          -0.26468310886594    3.05427114319732    0.07912517590438
O           2.18321447037772   -1.59000627017261    0.17599534546142
H           2.78537442763693   -2.00438725793924    0.79447252359191
O          -0.56443849787993   -1.89287320167885   -0.11501511735130
H          -0.85703601264092   -1.41406754065910    0.69960708920432
H           0.37519404850813   -2.09235482860201    0.03248991044513
O           2.38541738110997   -0.59680647782777   -2.30379790260074
H           2.95681026367743    0.16652746948686   -2.20016004239525
H           2.43136993232103   -1.09011403823866   -1.45641568840673
O           1.24377915519326    0.57732293289847    1.25962580005905
H           0.89127191298374    1.27531266367028    0.68091838294332
H           0.46486000936460    0.24553401434350    1.74759188386998
H           1.87806498294660   -0.74149687639159    0.61060109795685
N          -0.23096429849868   -0.10235198705086   -1.97438214587679
H           0.75898779337943   -0.28885021358769   -2.26998263679070
H          -0.48811918612233   -0.82563994539612   -1.19972072097758
H          -0.29147102556146    0.83580835602963   -1.55952377647075
H          -0.88495582954647   -0.18209455638589   -2.74510911804798
