    26
        -50.45759460  Gyration_radius:  2.57459160041 Dipole_moment: 5.983
 S          -1.02501989597255   -2.00250538901653    1.31487179713084
O          -0.41122162497956   -0.93750800768315    2.11387101418784
O          -0.12352240815285   -3.04488909541637    0.93571201177739
O          -1.73681709060370   -1.41466156687746    0.17850889752931
O          -2.14682426794273   -2.64281882514468    2.24340700463460
H          -2.73684910135518   -1.91619634411311    2.42318231395540
H          -0.56802694915350   -1.74540554309092   -0.86023751897198
O           0.18368864627965   -1.69734888641099   -1.50655043870706
H           0.51454266933281   -2.59730014995623   -1.54562729854513
O           1.66804806306154    2.03014211626000    0.64812608698392
H           2.32635815743965    2.31260062760194    1.28352036000973
O           1.25135534910401    2.42937938951633   -1.96774234912403
H           1.98774223570498    1.98196808650964   -2.38898443025769
H           1.46188316986840    2.46047826559359   -1.00953707376766
O          -1.00333974259107    1.36376211990402    1.02411411095774
H          -0.87949558639972    0.49653144043370    1.48352995753600
H          -0.14545315673067    1.81434054699171    1.09876698200613
O           1.69785164497450   -0.56523363708757    0.52090332573800
H           1.74008070178957    1.03300414610115    0.59694259741346
H           1.07435501506564   -0.81515895331014    1.23078597683934
H           1.34676628273137   -0.99739812982276   -0.27679047327406
N          -0.90452250624246    0.89231913226185   -1.53345445975494
H          -0.59783088779204   -0.07572572314402   -1.69014774227760
H          -0.14643338156714    1.55117756826343   -1.83902703029449
H          -1.77935852069388    1.06047746689560   -2.01768587395277
H          -1.04795678517500    1.02596931473291   -0.46045775776324
