    26
        -50.46590964  Gyration_radius:  2.55477564314 Dipole_moment: 2.213
 S          -1.96339588771430   -0.61169794935769    0.67783124963023
O          -1.71638291780375   -0.61422364471055   -0.76024280419016
O          -1.56399511622986    0.64533443299505    1.28540590824552
O          -1.40657932309189   -1.77626906959188    1.33440374523348
O          -3.53368599231125   -0.70272989779221    0.87227040311641
H          -3.71624004000728   -1.63095398166259    0.76595860393743
H          -0.21724498686793   -2.34642181049288    0.26122429533366
O          -0.72894791870276    3.02005487508941    0.44377734146027
H          -1.21400775820208    2.25364606789012    0.81377246555301
O           0.39682353320513   -2.43585246826506   -0.49568534956419
H          -0.13045823597577   -2.16362863226245   -1.25239241564553
O           2.01306871721597   -0.40543746346190    0.10096603434343
H           1.58742359666058   -1.26069483772282   -0.14378126812294
H           1.75594414699894   -0.27483598537954    1.04029482482754
O           2.52343623927552    0.44650008953071   -2.60661012490618
H           2.70201579332459    0.09832447268609   -1.72282297786010
H           3.19355949502961    0.08141733354008   -3.18512720460128
O           0.70056636239489   -0.20211689215721    2.42031935803991
H           0.44866021174824   -1.10533786154825    2.63311040654914
H          -0.21276826945068    3.37738475394558    1.16896842248923
H          -0.12932406599310    0.20654723330514    2.10930694458024
N           0.23876752347747    1.10066001483382   -1.17164482894367
H           0.99891601752989    0.60164142448509   -0.61968894028181
H          -0.60245580191097    0.46778349888002   -1.14800798318831
H          -0.01946404058865    1.99642114895386   -0.70469878084831
H           0.59576871800513    1.23448514828661   -2.11690732519908
