    26
        -50.46886166  Gyration_radius:  2.5085962593 Dipole_moment: 1.107
 S           1.37758388418399   -0.94735943148006   -1.46107065721153
O           0.26365827503029   -1.89165144076730   -1.38973217651176
O           2.36902362117699   -1.14743439480542   -0.44237842661738
O           0.87717989549230    0.42864605304919   -1.50529984894937
O           2.07571205215829   -1.20368215470539   -2.85679210239725
H           1.35438802089596   -1.16332563687321   -3.47720426071651
H           1.08208294642080    1.41274931403855   -0.24410550133292
O          -2.54846011244321    0.16351165544943    0.59621841194474
H          -2.44511864540263    0.19173775700674   -0.38073777632140
O           1.19639542315215    1.98727254427637    0.55476225422481
H           1.80007972950694    2.68361544384325    0.29175106548255
O           1.54844610769836   -0.35060750261829    1.94801871651205
H           1.47222205709898    0.59134823621074    1.72419933195820
H           2.05869345328249   -0.72549011528399    1.20067150645980
O          -1.71000663899133   -0.04359631505842   -1.94823890844101
H          -0.82155493164772    0.34550084493529   -1.84037033308977
H          -1.53668127366298   -0.99013572106503   -2.00020593128009
O          -1.32961845108941    2.40546791227958    1.48975019300593
H          -1.21788064714794    2.53513042736922    2.43246472936965
H          -0.43368309842321    2.32587020151088    1.11024379279626
H          -2.24631224912143    1.03753717820152    0.91608111276031
N          -0.64390767280060   -1.54423699918183    1.07289060298583
H          -0.93180628594487   -2.37660341800835    1.57601580022641
H           0.16879884439870   -1.07093943685953    1.56495898461211
H          -0.30706959462279   -1.79737625084035    0.10889858023427
H          -1.47216471920731   -0.85594873061351    0.95921082027415
