    26
        -50.46651512  Gyration_radius:  2.52832260036 Dipole_moment: 2.405
 S          -0.46412510109909    1.82858714830815    1.22502328209780
O          -0.22037251753253    1.15225244341308    2.47180369131083
O          -1.38492071896760    1.05605154331131    0.37655079815805
O           0.73371166376418    2.20040581532122    0.49564923231597
O          -1.20155246377045    3.19297265369588    1.53956728553390
H          -0.88498182874108    3.74264461355399    0.82965103361447
H           1.66970687813475    0.95926564069767    0.16112070806912
O          -0.56253036698293   -2.63991725736059   -1.50756262816710
H           0.01213434613163   -3.40552997805699   -1.54840541385841
O           2.22818702250128    0.15369212334691   -0.00536210876296
H           3.12424692062076    0.47681109243426   -0.11526036932133
O           1.13443920646376   -1.10448841637667    2.15444135066660
H           1.71895321682451   -0.81070052930044    1.43196406434072
H           0.75262592871684   -0.27585524139022    2.51202756613839
O          -0.95989399696439    1.35536658518047   -2.22325480520670
H          -1.79815194906210    1.10435403011413   -2.61542513556387
H          -1.08997030485412    1.31726377836425   -1.25248191245499
O           0.88451577759081   -0.63112017616379   -2.29052614135095
H           0.28640101306369    0.13485083957061   -2.40564114305372
H           1.44052762349781   -0.40412720544687   -1.52490018059577
H          -0.03307859693929   -1.88332622806802   -1.89864315010548
N          -1.09441257530589   -1.52363566696636    0.84058881440434
H          -1.85299831594544   -1.94263465082498    1.36697850918900
H          -1.30774638450193   -0.50804622472505    0.64778842382416
H          -0.18993564889879   -1.51815698247816    1.41164502477764
H          -0.94077881768342   -2.02697976015603   -0.07733679592340
