    26
        -50.46854415  Gyration_radius:  2.5256334752 Dipole_moment: 1.449
 S          -1.56154501547780    0.43297178670132    0.94776632011650
O          -1.33726587919221    0.61537940602578   -0.48181281225497
O          -0.31324631512102    0.46505133107502    1.68669832443966
O          -2.38120490713110   -0.72773923927740    1.22244835030103
O          -2.38553713551880    1.69074445104783    1.44365595105104
H          -3.25389047528797    1.51175934103338    1.09921955338366
H          -1.60212731901274   -2.01429689210684    0.62828121846675
O           2.59133649133072    2.10678358072054   -1.20350115396591
H           2.37894627692291    2.81716451124106   -1.81066701404699
O          -1.06892489723533   -2.76278672601766    0.26126083972278
H          -1.50294753795459   -3.56528914088033    0.55620772697518
O          -0.85925762339768   -1.59883431870172   -2.28034211467111
H          -1.35050847986924   -0.82495124025547   -1.97761813334592
H          -0.92086869081685   -2.22590344522042   -1.54369452871943
O           1.29162160196890   -1.60090685466837    1.04754969100901
H           0.59787087686725   -2.24500756401477    0.82390352814003
H           0.82524506745943   -0.89635554806382    1.53278733450130
O           1.15088116643080    2.56062934356286    1.00948886023255
H           0.56416109297672    1.80867597584717    1.24274192404942
H           1.57776300205870    2.81763165829824    1.82849710173064
H           2.14553097856707    2.33344937451597   -0.35597021755727
N           1.11398580383001   -0.13761115175351   -1.15599899110329
H           0.20520235807933    0.30885194162820   -0.87044614330929
H           1.81410917275800    0.60825777117459   -1.35167607530469
H           1.40599221867946   -0.74328924221127   -0.34063614812603
H           0.87467814816451   -0.73437910967267   -1.95814340172177
