    26
        -50.45798166  Gyration_radius:  2.74803130356 Dipole_moment: 2.208
 S          -2.55504810154454   -1.13326228905411    0.23207048314442
O          -2.45705409370294    0.05596227514923    1.08244163021416
O          -1.59966421832484   -2.14818916683815    0.61134242949768
O          -2.51322798621394   -0.77883999744715   -1.17799308912118
O          -3.99943939611206   -1.73684119774904    0.48676278871571
H          -4.55587223490252   -1.07223070334503    0.09335685792333
H          -1.10398645397671   -0.32584718413077   -1.74133521553351
O           0.88195978739174    2.72400344788205    0.94447538854050
H           0.19298349591629    3.34746264931903    0.70960986721701
O          -0.17770038579389   -0.15552435100830   -2.06779992952307
H          -0.16131436299854   -0.47297406144583   -2.97240132582313
O           0.85722366538616   -1.50313315310801    0.01171439664681
H           0.61678921449288   -1.06098807399535   -0.83046321245243
H           0.03971104096611   -1.99912819478336    0.24258309314556
O           3.36002739524688   -0.37763504935321   -0.41859672490248
H           2.62986713382158   -0.98737873212323   -0.23407870198292
H           3.98083975289812   -0.45273155610386    0.30659683644355
O           1.75480405130612    1.70327986139757   -1.29863157644810
H           1.02763089385470    1.16599776394327   -1.65155035441416
H           1.28675163075550    2.42633150836030    0.08310572104738
H           2.46255133454621    1.07205741762413   -1.08463145771236
N           0.02060872756174    0.34677035687459    1.75456570566141
H          -1.02697639670173    0.26488509883025    1.53824875440200
H           0.35464182033822    1.32115086913610    1.51314311532916
H           0.18621200070478    0.13691350650652    2.73269566217151
H           0.49768166510459   -0.36011104456399    1.13476885780749
