    26
        -50.46825959  Gyration_radius:  2.51157803223 Dipole_moment: 5.424
 S           0.06582282387304   -0.83630985897954    0.83073293234462
O          -1.17104159938945   -1.27822257188853    0.23335755998344
O          -0.07263907183753    0.54436742474196    1.34766460274341
O           1.18797566999699   -0.89850032923966   -0.10636189990563
O           0.36408167374002   -1.75584400101216    2.03279501170821
H           1.19886866634580   -1.44411312972649    2.47803789978337
H           0.91195297892623   -0.08121203293498   -1.43948786958701
O          -3.23965458769644   -0.01490227353999   -1.08745152814425
H          -3.02363512334971   -0.57099918508429   -0.32530818072022
O           0.68563917741099    0.51744432809008   -2.20426662439728
H           1.52195874419268    0.79646311458428   -2.58045967673352
O           2.52668349553738    1.01020008439949    1.21758201685047
H           2.53767672197440    0.31839628964274    0.53938768538548
H           1.57056429681560    1.13116980425944    1.37392870102512
O           2.47029975904596   -0.74904559726408    3.19300549222668
H           2.69594784845260   -0.04559996355314    2.53573993145592
H           2.19840138680959   -0.29918204125569    3.99557912362616
O          -1.42716150859645   -1.39201939005424   -2.47673568403701
H          -1.23110413754534   -1.62614832092106   -1.55214886754361
H          -2.83805929781012   -0.51065355878219   -1.83596487475550
H          -0.68973656880221   -0.83806523310209   -2.75727270050812
N          -1.25466099703504    1.63862786031914   -0.68927923635235
H          -2.14551680544158    1.05798325298369   -0.87338376690455
H          -1.45007687161764    2.63328346321973   -0.64863045389165
H          -0.83627226622586    1.28114378619791    0.22510184516488
H          -0.55631441776436    1.41173807888707   -1.42616143884589
