    26
        -50.46193459  Gyration_radius:  2.60896281235 Dipole_moment: 2.237
 S           0.17377199524098    1.58968634916363   -1.95345988995130
O           1.41543838517820    1.66789635333570   -1.20962323439671
O          -0.86671751420800    2.47120429659735   -1.45428551691050
O          -0.30307657465583    0.21348402315317   -2.06891947914212
O           0.50209023131411    2.08057420876116   -3.42412287282968
H          -0.36190974096966    2.25266913754799   -3.78562073453961
H           0.68446549413145   -1.00462514592858   -1.52748769913479
O           1.15157759868758   -1.16314797338537    3.10610025676094
H           1.28695453234861   -1.64505625642111    3.92129264302107
O           1.28468674865786   -1.57118057930290   -0.99022901708354
H           2.17010818657419   -1.37750716477878   -1.30157874946831
O          -1.63851867024052    1.57899465077242    0.84170744445190
H          -1.92403774407778    2.32038295495756    1.37773875591038
H          -1.41670128338164    1.95351826567326   -0.05295825299208
O          -1.96355278712313   -0.97711517828880   -0.21830743928699
H          -2.23498339571812   -0.18088670721624    0.25301545499945
H          -1.48347891914860   -0.65758902567650   -1.00061857507560
O          -0.24233811279151   -2.51490690890417    1.20986141535877
H          -0.99840602431705   -2.06135654253090    0.78256530275388
H           0.33373649498943   -2.76339050798791    0.47949275921396
H           0.61178075974548   -1.74326044462472    2.52677703283371
N           0.77410801494702    0.31694822009320    0.92032058272022
H          -0.20224005554851    0.64741147821122    1.06197099676220
H           1.23234582539486    0.18278693803090    1.82954561643421
H           0.78332363862366   -0.60150696810657    0.42521476256760
H           1.23157292656607    0.98597255649262    0.25160841705614
