    26
        -50.44355149  Gyration_radius:  2.55417156196 Dipole_moment: 7.582
 S          -2.48783178783909    0.44235425681248    0.58982522503838
O          -1.56997777195273    1.49298167523952    0.97783047722796
O          -3.33065631043529   -0.07132061381238    1.60666380161802
O          -1.63622742549688   -0.70735576239591   -0.03708740466863
O          -3.29432436363845    0.89754288084981   -0.63308571623295
H          -2.60928956511980    1.35687435781961   -1.21484446639720
H          -1.08533464907943   -1.17314750185486    0.65688721685310
O           2.39114002216600    0.88930249297940   -0.00056056881360
H           2.82461265414483    1.73842401031104    0.09713183342240
O          -0.07731849510655   -1.95244385688303    1.60782485113603
H          -0.43710117476162   -2.81738414471080    1.81125676244558
O           0.86414707657882    0.41319866697200   -2.15916273840438
H           1.42269875124367    0.60915700155576   -1.37254933773785
H           1.32894942583943    0.76463394969111   -2.92041755801042
O          -1.24276534069425    2.03664789775882   -1.62620051219610
H          -0.57735293908502    1.36811819507503   -1.89630757123132
H          -1.07515719196509    2.20500159219022   -0.68600053487606
O           0.75727982099749    0.69996742733849    2.05231802469594
H           1.79684293895575    0.80401456889777    0.79284064089792
H          -0.08179700206681    1.10568785218570    1.76247302660157
H           0.54897881271685   -0.22663768124571    2.22182941015196
N           1.59260049831890   -2.01883889659185   -0.40606844403357
H           2.05508356945720   -2.83811101088124   -0.77855157727765
H           0.62322431215927   -2.07137965400378    0.88419536715290
H           2.29864061729065   -1.32069504640493   -0.19795679557798
H           1.00093551735616   -1.62659266687015   -1.13228341175885
