    26
        -50.46052551  Gyration_radius:  2.47334638966 Dipole_moment: 8.487
 S           2.07564505751032    0.89894444554329    0.09504168374531
O           1.36019453258990    0.03409917556539    1.04961278163852
O           2.10641425598892    2.28113020915875    0.47549551909428
O           1.65035817512883    0.61630578307301   -1.25888095163974
O           3.59377566555186    0.40057303611906    0.18023726774711
H           4.00903377170584    1.12831659552403    0.63192344653265
H           0.71109804358097   -0.38215718849076   -2.01150178976749
O          -2.37492947037859   -1.06341468794185    0.80998510981254
H          -3.28924056366058   -1.34402617753630    0.85119069865277
O           0.10918426889735   -1.08329293470343   -2.38672524005770
H           0.42967795966039   -1.25902814974646   -3.27216693838365
O          -0.57768035538885    2.26513660035539    0.13251581841511
H           0.37814348217116    2.41783088362426    0.15011075204176
H          -0.81483786086805    2.00196311776455    1.04163087852149
O          -0.89566538006392    0.79902530518985    2.43168560685120
H          -1.50174942508105    0.14477898685948    2.05961018390211
H          -0.00731189369668    0.53607997213454    2.14462656862280
O          -1.98150835827424    0.46245978737782   -1.22599847139919
H          -2.30880133333226   -0.42166469277695    0.03182011565510
H          -1.49478439893783    1.22486780847215   -0.83442273003360
H          -1.34927407849678    0.01815184546926   -1.80627789754258
N           0.03432149809635   -1.97133283174058    0.14264590966089
H           0.64027838250429   -1.15918356312959    0.53018552445397
H          -0.94279269082667   -1.80323290934868    0.48268233902351
H           0.04605010948061   -1.87429616974590   -0.89350951749505
H           0.39440062613794   -2.86803422707217    0.44848332194842
