    26
        -50.46380740  Gyration_radius:  2.49149363883 Dipole_moment: 7.782
 S           0.42909644206312    0.38207124879990    1.91888678976386
O           1.49530784395444    0.46736905695017    0.96125625419380
O           0.01031202637000   -0.98794774951084    2.20556321703478
O          -0.73260820121209    1.20251072157704    1.56941041113857
O           0.97709594804850    0.96813213318224    3.27973461430097
H           0.24469278421142    0.83334891901801    3.87197855366131
H          -1.63813333042043    0.72353196837026    0.33508879268624
O          -2.15619838884063    0.35647293329630   -0.42846582406650
H          -3.01191137504537    0.78767186436911   -0.40320332389604
O           0.89669631417787   -2.62060358829725   -1.58259813957874
H           1.63573088732344   -3.11810782830274   -1.22902476608123
O           0.61128188576502    2.93093652280177   -0.01321545507876
H           0.04716151624878    2.45163472863357    0.61646737875188
H           1.48130416123866    2.53617526747176    0.09975476167592
O          -0.22435853220354    1.49936796150653   -2.18222499753715
H          -0.98726654068509    1.07840088853160   -1.76461760032398
H           0.06922912810730    2.18637130370415   -1.55086392440931
O           1.76836063186567   -0.21130081657222   -1.66355831905492
H           1.82653301258315    0.02302968830729   -0.72184199977348
H           1.25275207123961   -1.68465291029240   -1.72959113954734
H           1.09641230354350    0.40522414393622   -2.03494893430402
N          -1.03321578061762   -2.05933003895484    0.08527664864841
H          -0.25998551112054   -2.33576757819213   -0.60895594911340
H          -1.63602559734658   -2.85055175526123    0.28540468495767
H          -0.57959280982867   -1.69623559839192    0.98236166576682
H          -1.58267089948917   -1.26775150669030   -0.29807339976067
