    26
        -50.46975139  Gyration_radius:  2.4450572564 Dipole_moment: 3.804
 S          -1.51497533427431    1.03931278213244   -0.46900938228449
O          -1.43405683788597    2.29523939456828    0.23518105420797
O          -1.71591561194574   -0.10265000814159    0.42835623543607
O          -0.40575135400318    0.79715998774187   -1.36981483960545
O          -2.83264895556590    1.11647793802476   -1.35024923024873
H          -3.07641432042911    2.02503373778448   -1.21242684949011
H           0.23511545371425   -0.75618123682921   -1.78840482142759
O           0.84290864555422    2.26133558894887    1.63691754879656
H          -0.01412200159689    2.46993049126011    1.21133720742191
O           2.20308093071052   -1.37242393219825    0.22843554151897
H           2.80408138362923   -2.11671525762591    0.26611050039525
O           0.55131383006614   -1.67847031320797   -1.73300671719177
H          -0.23729964394763   -2.18506450992894   -1.45872861080787
H           1.59871671068345   -1.53886425566714   -0.56022978774514
O          -1.88656706972642   -2.44425232953643   -0.82391909806653
H          -1.90847710326800   -1.60827762118745   -0.31482714248473
H          -2.60032330503042   -2.38561899057350   -1.46087132934793
O           2.10668558701763    1.41421913848195   -0.53502893298866
H           1.26019543097240    1.29689687798043   -1.00111747324992
H           1.47624684393220    2.18052686361548    0.88603353171108
H           2.42747097844327    0.52082425523048   -0.35713519664810
N           0.43049244094804   -0.27007966873851    1.93393545242673
H           1.16561361350911   -0.77048411544884    1.38506713128689
H           0.67093438924013    0.79214071166847    1.95893127035571
H          -0.47650686889539   -0.31810931195314    1.40083106448739
H           0.33020217803629   -0.66190621625583    2.86363286362487
