    26
        -50.46598213  Gyration_radius:  2.54724960844 Dipole_moment: 2.406
 S          -1.01993479968275    1.89911497591607   -0.47665131323232
O          -1.91938400872960    0.77195965534831   -0.63630265396130
O           0.37254627864275    1.49142135013984   -0.65861698301458
O          -1.22225809921621    2.66456284735844    0.73047500945841
O          -1.34325692112724    2.88056524931156   -1.68341806567667
H          -0.97138517784329    3.69732861850805   -1.36848198556857
H          -1.20024620329941    1.72486595539666    2.10460218486604
O          -1.00130804160891    1.16081801754748    2.88617981898393
H          -0.83286581550385    1.76866397161483    3.60843002798181
O          -0.23419410242240   -2.35555400423994    0.90037319725642
H          -0.97774508010721   -2.43332339891956    1.50006445990347
O           2.65842359964941   -1.61206084761476   -0.02437073248851
H           2.19166399397511   -2.42714856336057    0.17668493559120
H           2.34166162762238   -0.96556261084659    0.62333299267490
O           1.52608691724866   -0.40327402394468   -2.17696834211589
H           1.27735564239656    0.44487858796902   -1.76314063650016
H           2.12189936468282   -0.83666804289839   -1.53041394152766
O           0.88839000945186   -0.03580854560905    1.42946639835707
H           0.76073259214765    0.56282739976709    0.66134043277357
H           0.30321138994331    0.33574976064389    2.12247094450385
H           0.21691944119274   -1.50281007885862    1.14907108085968
N          -0.80055195800326   -1.39153368746844   -1.53553368984213
H          -0.63240384708738   -1.93979179284792   -0.65814645380085
H           0.15039314153607   -1.07580215528966   -1.92539150563733
H          -1.33788372626829   -1.91683933644240   -2.21522566874670
H          -1.31586620760668   -0.50657933118746   -1.23982950109761
