    26
        -50.45776825  Gyration_radius:  2.63192600515 Dipole_moment: 6.766
 S          -1.32217494834212    0.24225997944907   -1.15781229219305
O          -0.18004333453820    0.87587617806833   -1.75583020910805
O          -1.76415596323282    0.95705939431307    0.06676114391905
O          -1.11206972385818   -1.16258888358972   -0.84774475378854
O          -2.50878744609740    0.33947086046706   -2.17190986014535
H          -3.27024591855884    0.02299600566399   -1.65289959173584
H          -0.10266798469655   -1.68362983562657    0.21193791129132
O           0.47813131121568   -1.94050576472518    0.98839193446015
H           0.25816048013601   -2.85297200250712    1.18172074654409
O           2.43059694104622    1.50247188599247    1.30294039288482
H           3.14346661828257    1.60115051505085    1.93548021028653
O          -4.20185644254774    0.01333845310540   -0.13236589524709
H          -4.83100442015773    0.73730346250448   -0.09887259294831
H          -3.34344715848186    0.37656702522620    0.16945681396013
O           2.08560556426326   -0.28564203130980   -2.45100443210965
H           2.53156241668855    0.41280339662545   -2.93324406426862
H           1.19843227998094    0.07545779320763   -2.23197165372160
O           2.85160259715837   -0.73881555265013    0.06476060905296
H           2.13166359934371   -1.30810182998675    0.37386651943674
H           2.67603016946380   -0.61585916058301   -0.89570912881435
H           2.66221444143421    0.69759511179391    0.75061392209038
N           0.03617603678865    0.55475724930396    1.88336483552659
H          -0.69288461681389    0.81581987548295    1.14007439289220
H          -0.31264575209357    0.76922043458800    2.81139366848377
H           0.21037368964944   -0.46645184814654    1.76322716270829
H           0.94796756394984    1.06041929829578    1.68537422053464
