    26
        -50.47427217  Gyration_radius:  2.41149218293 Dipole_moment: 3.232
 S          -1.15891744197643   -0.96243273406845    1.24904127823175
O          -0.21001046379539   -0.16107577302355    2.01925112039075
O          -0.53637611367434   -2.06192259725716    0.55071527814942
O          -1.98341181422083   -0.12505248716395    0.39344701128506
O          -2.14103800750682   -1.60952989730121    2.30806721920162
H          -2.59386407402079   -0.84913505757166    2.65600058884036
H          -2.09515560055746   -1.04414948967568   -1.58139854231103
O           0.90103113438235    2.03352353202049    1.13126082115902
H           0.46278015501830    1.22312025835320    1.49083816556380
O          -1.33411092268041   -1.55693367212553   -1.87681929338720
H          -0.98977593597799   -1.93753375591789   -1.03835034360737
O          -1.06369097381432    2.07450585347916   -0.78625411851090
H          -0.40384725564488    2.36152763065633   -0.13474189345765
H          -1.54284850014711    1.34159647571218   -0.34351803409799
O           2.37293795159429    0.42774414168496   -0.57491473070276
H           2.39205881809641   -0.35395167456518    0.02562691902954
H           2.04797632583879    1.15082921614914   -0.01162195472555
O           2.00804864957171   -1.47857822191465    1.25210468435933
H           1.51666135997783   -2.20697793516788    0.85651810967425
H           1.24419777020087    2.50815652661382    1.88959802749880
H           1.31902278181698   -0.98333412493003    1.72964215363839
N           0.36882341318264    0.43882615512711   -2.27046220082929
H           1.24286738046722    0.33545832730325   -1.66540430676289
H          -0.22376121216535   -0.43752852745662   -2.22204443788949
H          -0.21278285967560    1.20826857361952   -1.81874332677195
H           0.61318543568517    0.66457924740770   -3.22783821397142
