    26
        -50.46881498  Gyration_radius:  2.50712978172 Dipole_moment: 2.217
 S           1.01714897945157   -1.61006857119170    1.09610836942138
O           0.05271975160660   -2.56403362338871    0.62430102781767
O           0.39430495088059   -0.48109649388075    1.79095191944551
O           1.93372577869131   -1.14315351416025    0.05759303666481
O           1.91938064809946   -2.33866268502215    2.16976137943438
H           2.58331426330335   -1.68807553025423    2.37637395384725
H           1.12453824561037   -0.74023396806998   -1.28896940793839
O          -1.85846634829421    2.51831204714418   -0.19183471410337
H          -2.41383981241277    2.79824082337823   -0.92061105100789
O           0.60278516891903   -0.44120664588891   -2.07486536957496
H           1.12443376209239   -0.67863161193933   -2.84357992353912
O           2.10663599067412    1.40634618781399    0.83993331809790
H           2.28331270840837    0.53754423126002    0.43769278677040
H           1.43951568613300    1.20638959188895    1.50839912981292
O          -1.66863357612823   -1.67316187629611   -1.18561713840423
H          -1.00520364509309   -1.22758761573012   -1.74182204541979
H          -1.13588698058241   -2.24921545825255   -0.60013112688290
O           0.52015611897521    2.20644590729272   -1.20267692570911
H          -0.92615725263720    2.49686718268827   -0.55309460951130
H           1.16956086868339    2.11270183381613   -0.47427960452211
H           0.50607675216583    1.33925261457843   -1.64006631304786
N          -1.97481187105371    0.04910570242713    0.77329996905720
H          -1.05405588502331   -0.13314585322199    1.25894978587789
H          -1.99484810533186    1.04918215386330    0.42934398565123
H          -2.00354158310512   -0.62246782369592   -0.05689225471266
H          -2.74216462403752   -0.12964700516110    1.41173182247312
