    26
        -50.46881505  Gyration_radius:  2.50714833993 Dipole_moment: 2.216
 S          -2.13704501989318   -0.37248655104320   -0.35066248929460
O          -1.93648639894837   -0.28101961932153   -1.76985041892123
O          -1.67091594026287    0.82128968181247    0.35852615099753
O          -1.57582970117821   -1.58512309628757    0.24185623799007
O          -3.69470751515596   -0.45066126561521   -0.09560608783827
H          -3.75626467438648   -0.59352990570710    0.84381355987570
H          -0.06468376106203   -1.84038235227701   -0.28903866538064
O           2.43207287947282    1.80089276819497    0.82335945668593
H           3.33826026740616    1.75856860714905    0.51521818746760
O           0.87660290045318   -1.93907543292324   -0.57796360174467
H           1.02345627577908   -2.88110150122739   -0.68015031211011
O           0.58305192795219   -0.09851571737736   -2.57648313261285
H          -0.38856780978335   -0.21596518799004   -2.55135692269893
H           0.91967419940051   -0.81510364532330   -2.00970449877388
O          -0.69976715930581   -0.50646965625898    2.52468010882540
H          -1.01237405705047   -1.12819128168540    1.84381555264628
H          -0.96865326292972    0.35274078062698    2.17635157403021
O           1.86376185022665   -0.59801338675754    1.65927376209779
H           1.66201744759908   -1.11229630566078    0.86032246453395
H           2.24430441441003    0.91063676649194    1.23859627225805
H           1.02336131983822   -0.57259026671234    2.16341730352131
N           0.39416317139968    1.89212224720129   -0.87380307219578
H           0.57934005500412    1.17244949731998   -1.64115841187850
H           1.21781072618021    1.93319600031083   -0.21137484114334
H           0.20292389883594    2.80539443878401   -1.27096540159415
H          -0.45550601399204    1.54323437427634   -0.35111279474823
