    26
        -50.46139740  Gyration_radius:  2.50392565938 Dipole_moment: 6.331
 S          -1.90678047713551   -0.16882706493542   -0.99672158883483
O          -1.37242983362683   -1.25797533370748   -1.78098876109307
O          -1.11071027354266    1.03735356599665   -0.99493259116159
O          -2.23821233302472   -0.60737500819958    0.36585495048341
O          -3.29289538214656    0.23450114562573   -1.66499472804931
H          -3.72777836011166   -0.59487109623739   -1.84108009961491
H          -0.85319170142202   -1.40110847568899    0.56052078929244
O           2.78956210201248    1.23639941355867    0.77908474830390
H           3.73083157411935    1.13847492136774    0.92747502821657
O           0.03728156387065   -1.80595630221713    0.70474429374776
H          -0.00215055426982   -2.65802183095163    0.26584266068007
O           0.57833228781309    0.18096583911676   -2.91744447326573
H          -0.06102969640580   -0.54005638606821   -2.78584012545512
H           0.16566767498856    0.91302022499081   -2.43779930251505
O          -1.37161640551187    1.54758387139835    1.56741863326201
H          -1.16702941820574    1.81737658589421    0.65238780218525
H          -1.92263194531848    0.75516763607421    1.39860802960781
O           2.08683961312994   -0.62676512457813   -0.87874098560890
H           2.56103984041035    0.60388698782660    0.03635868178825
H           1.37048105156778   -1.08724769838885   -0.41709119867654
H           1.68363559828197   -0.31128307516071   -1.72207904525601
N           0.81737664536514    0.31293446940736    2.26187132510925
H           0.96883147526838    0.24541535778220    3.26221267825860
H           1.64779814708443    0.75333604478376    1.76766055550153
H           0.65468300791881   -0.61777962416949    1.84638104846855
H          -0.06590418108643    0.90085095642772    2.04129165465537
