    26
        -50.45603325  Gyration_radius:  2.51403297371 Dipole_moment: 5.741
 S           1.97686969191396   -0.01602867155628   -0.51669170526859
O           2.40583433027985   -1.33702169971789   -0.91614465553356
O           2.97615945310323    1.00337377559901   -0.49204280911282
O           1.50005775824212   -0.21535671540711    1.03321236684673
O           0.72547413398210    0.38278454451046   -1.16674878659485
H           1.46715310835561   -2.54802920831106   -0.39080994142707
H           2.30686379223943   -0.48512762120330    1.46074894490322
O           0.79921054172598   -3.22679475379017   -0.11597726641949
H           0.99646899272319   -4.00821442617995   -0.63493758052600
O          -2.37418344311877    0.30949602683846    1.18850328634657
H          -2.96787467521714    0.24427623530416    1.93683885852261
O          -2.33302519513754    0.68989451974770   -1.72758167824201
H          -2.55949302596420    0.89312807338475   -0.81257503315841
H          -1.47384205558273    1.09041742879508   -1.88522217068304
O           0.86318809919320    2.86632105165170   -0.20425421485656
H           1.81384001019721    2.98433559989562   -0.12161300546272
H           0.77636546916533    2.02760207891140   -0.68990396588301
O          -0.30454538803526    1.72148693545760    1.92869995491710
H           0.35284625281132    1.01476785794916    1.87748181714189
H          -0.02018169749746    2.35627683286166    1.23731977848849
H          -1.63281065590892    0.91169047780701    1.47736204486009
N          -1.07476591602839   -1.36489357087557   -0.48401456804637
H          -0.55591232631840   -2.23828760577309   -0.24609558356456
H          -0.34657652600994   -0.65124563934812   -0.79521753436295
H          -1.73317398455067   -1.47486790621041   -1.25459967255303
H          -1.58394675456726   -0.92998361033053    0.31426311966250
