    26
        -50.46116841  Gyration_radius:  2.61837880852 Dipole_moment: 2.828
 S          -1.60114649693493    1.75302789560180   -0.08718570684502
O          -2.08209793559283    1.00868511006800   -1.24425505968854
O          -0.60296549635879    2.74521604474931   -0.38686412525554
O          -1.15595025747726    0.83714645610934    0.96846245196158
O          -2.87277670040049    2.51150523809130    0.48289546490122
H          -3.58492365511631    1.92861978027270    0.23826071076271
H           0.37546645240460    1.18296857466658    1.39171696994718
O           1.33260584507107    1.33737996475612    1.59567455217453
H           1.36702488087298    2.19513759279289    2.02163867579362
O          -0.36180759568996   -1.73469698416849    0.80605073601976
H          -0.83463148372716   -0.91667610967882    1.04826991788564
O          -0.31507440062004   -3.32258438939896   -1.57676381628175
H          -0.45150104280524   -3.05502526527526   -0.65731589227785
H          -0.63489600239796   -4.22227595796535   -1.64932965010104
O           1.63050063892081    1.50957165794323   -1.12695954550756
H           0.88384848754755    2.14040338078153   -1.06452491032376
H           1.88618482575576    1.39438853911321   -0.19629218532451
O           1.97011421503869   -1.26287532728906    2.09041086921046
H           0.45357822891343   -1.72608625329868    1.34856945337587
H           2.81073734605407   -1.41936363145479    1.65759700958640
H           1.81949225272116   -0.29976497608935    2.06589574223337
N           0.00868407956980   -0.52682608460665   -1.57162006717984
H           0.79038806065319    0.18500138316219   -1.53984423000539
H          -0.01965662623515   -1.06964505028283   -0.67079179248087
H          -0.89497450157693    0.01910876670533   -1.60605223790357
H           0.08377688142987   -1.19234037525892   -2.33764332469993
