    26
        -50.45509207  Gyration_radius:  2.70173032974 Dipole_moment: 5.403
 S          -2.62909652761593   -0.82345742104771    0.73253599669617
O          -1.39767765315044   -1.58038847128121    0.73991320408345
O          -2.82698958315794   -0.12826709071805   -0.54398367630508
O          -2.75746147536784    0.08069115356006    1.86197475000759
O          -3.81774299323280   -1.87161598378886    0.85472028229325
H          -4.59020463045041   -1.32564433325344    0.97522330085260
H          -1.23783784126775    0.65082568931105    2.04749562962063
O           2.26397403452110    1.62479962455371   -1.70411898301246
H           3.10275157740136    2.00442185108781   -1.96739600999668
O          -0.26303338117768    0.79254211956974    1.95279950573931
H           0.12365169320192   -0.03918311860149    2.24664527978061
O           1.39820024534893   -0.87213937050219   -2.12178498517169
H           1.88347795417700   -0.01785181580779   -2.11827546419398
H           1.20819226106188   -1.09162888876859   -3.03432685847989
O           1.28720172861605   -1.48331628099688    0.67861248756520
H           0.32563415854797   -1.63314966936550    0.76267971818027
H           1.50224999019492   -1.73530142374873   -0.22532520743270
O           2.35640875334866    1.00415952759208    0.86046886629391
H           1.73322888834398    1.42318364668968    1.46199060140896
H           2.10915197629790    0.05445476427160    0.85676404599415
H           2.33366592746556    1.47180786444528   -0.72671585353265
N          -0.41059387914140    0.71539554687709   -0.73472561091192
H          -0.21268809698955    1.59721965899923   -1.20105251274707
H           0.17453664886409   -0.03085983607058   -1.15673238029274
H          -0.21471122463457    0.78657609522750    0.30004823529153
H          -1.44428856104394    0.42672614192050   -0.79743437177738
