    26
        -50.45514041  Gyration_radius:  2.75136006156 Dipole_moment: 5.670
 S          -0.19338372355135    2.39886220294593    1.62031379930622
O          -0.11511599175220    2.86166273552440    0.22877767701226
O           0.82225341908225    1.42810744217113    1.93927276949263
O          -1.54467114640665    1.95994929621669    1.94114688275589
O           0.08521230613748    3.67960733500067    2.51488644421517
H          -0.62401367411243    4.26344101127595    2.26309678129227
H          -1.98652239190794    0.65782732656506    1.17147176171169
O           1.61477084541665   -0.63934266630481    0.53004315549206
H           1.50126350736507    0.09075948440861    1.17651032871059
O          -2.25333325814905   -0.10100295703385    0.57865057910099
H          -3.21121030908334   -0.08683168944293    0.55761053648957
O           2.44000481628380   -1.66906123118165   -1.83075048487681
H           2.36601815653680   -1.23770133360067   -0.95909637667269
H           3.04652220336473   -2.40157622495429   -1.71321553753143
O          -0.22406872607426   -2.01944379912834   -2.16749168763544
H          -0.39971427871491   -2.77787204502528   -2.72497755539663
H           0.75086188571587   -1.91565462038118   -2.13988276168035
O          -0.49332633484690   -2.26482002101667    0.60789360732753
H          -1.19179396406009   -1.63779985637450    0.84590523301956
H          -0.52067687676817   -2.31911739562494   -0.36265971651164
H           0.96672394325109   -1.33492869463181    0.79088653357187
N          -0.16895233608028    0.61248782829635   -1.00943368716175
H          -0.11858507469797    1.61938622845391   -0.64056234022018
H           0.62168133470078    0.08599700630076   -0.54187013901984
H          -1.05984611504726    0.21399242741243   -0.65700571042589
H          -0.11009818658559    0.53307219998575   -2.01952009247912
