    26
        -50.45499967  Gyration_radius:  2.40456392452 Dipole_moment: 8.856
 S          -1.61113095113719   -0.84047773002801    1.23355000094345
O          -2.09788073770652   -1.45068126929973    2.42216554999810
O          -2.08359248200682   -1.38516659250606   -0.03489524458007
O          -0.01386504018796   -1.10027855002042    1.19923237234068
O          -1.70378379755139    0.63214516233543    1.24004498086600
H          -0.45015592228304    1.18880021889880    1.99530161086951
H           0.11957857798376   -1.34005161605155    0.26831366783530
O           0.05378234143607    1.13240337986554   -2.01125631674219
H           0.10115614650145    1.73814072149806   -2.75168726564734
O           0.46340255435430    1.37592733425649    2.35630320730426
H           0.61938679371078    0.66376254976766    2.98090182055687
O           0.07624123758205   -1.59411947584210   -1.45683885568073
H           0.09642614847803   -0.72999108011726   -1.89764664804256
H          -0.84871978675822   -1.69336026200322   -1.12690410505546
O           2.52984765676766   -1.50091038516425   -0.21610477795293
H           1.83532456361073   -1.76220598004912   -0.84622183566921
H           2.36096785997902   -2.00381680914358    0.58483693200673
O          -2.37977489095417    1.02945972992597   -1.20969845431676
H          -0.91657564640370    1.13827362282740   -1.71335266986464
H          -2.67734258789530    0.11448522687545   -1.30361594867633
H          -2.21692612031527    1.08250454100126   -0.23620512906352
N           1.76176767934054    1.07151371892848    0.10091549509027
H           1.24493205019564    1.18809786181303    1.04248898853992
H           1.08229824589606    1.19820373591517   -0.68378398282481
H           2.51060899505137    1.75301610971892    0.02974485879531
H           2.14402709231104    0.09432582659727    0.03441174897109
