    26
        -50.45603207  Gyration_radius:  2.63418298858 Dipole_moment: 4.953
 S          -2.27710005406803   -1.04475253321609    0.81745612673568
O          -3.16720598193222   -0.48571168313296   -0.15656405179367
O          -1.99140757829992   -0.13267333753901    1.93049725314693
O          -1.02089068397900   -1.51665535264290    0.22484962414546
O          -2.97159841683643   -2.31464184278193    1.45980015898923
H          -2.36078064947229   -2.60895090000330    2.13085185235406
H          -0.91622366160298   -0.54174091924856   -1.09751071855065
O           1.62143339159951    1.52837046774814    0.81736462573072
H           2.18062759981003    1.85455434462559    1.52281316147322
O          -1.03701416507192    0.23531162223326   -1.69814640318907
H          -1.94721295860151    0.14222449386386   -1.99756177141843
O           1.69967317627235    0.90381156206250   -1.95756965490912
H           1.75968567747194    1.28926607986334   -1.07194839914832
H           0.76941387166715    0.67599480920516   -2.08932108312521
O           2.81951763439413   -1.45989190494458   -1.29072618125847
H           3.76617460659370   -1.42339162953474   -1.43069925505623
H           2.44754142818181   -0.63969579154870   -1.68346490590859
O           1.48065521324082   -1.01796059385974    1.02679147891546
H           1.58687679408497    0.51588278595916    0.93602679597812
H           0.55858307613319   -1.26676308780312    0.81543497233879
H           2.00517513231798   -1.34186630571575    0.26578166998767
N          -1.00649123933285    1.76567497871809    0.50625697609486
H           0.02154107216803    1.83709367415529    0.71746565301814
H          -1.44583360930925    1.06029884684518    1.19504828205383
H          -1.47458895352639    2.66409084424933    0.55113435993631
H          -1.10055072192488    1.32212136242855   -0.44406054651095
