    26
        -50.45955559  Gyration_radius:  2.58772824315 Dipole_moment: 2.737
 S          -2.05584311179922   -1.06110975158317    0.85143183666464
O          -1.46121258409292    0.23819083098980    0.47103513814495
O          -1.36454105687817   -1.60961548174996    1.99272917754037
O          -2.12764185085302   -1.93985717046275   -0.29274270371938
O          -3.53950084116347   -0.75313950753423    1.31189322517826
H          -3.46390953701961   -0.67804581734036    2.25896189824268
H          -0.69109081300333   -2.26568512279053   -0.93273357975360
O           1.55849113392675    2.02897413367511   -1.54791555645298
H           1.79603524673372    2.45322951899518   -2.37234903286797
O           0.24143057274528   -2.34798719413688   -1.26641832203170
H           0.31675852668297   -3.23499186998653   -1.62111836409455
O           0.13677288807794    2.46261296931800    0.99307504221620
H           0.34724342858478    2.71237867833865    0.08506301212639
H          -0.57659394516918    1.81189335844829    0.92087085511415
O           2.55661764350702    1.26775202858537    0.86785529497469
H           2.54082105762847    1.52262323254835   -0.07133319929711
H           1.85729112335769    1.83241350246140    1.25409070162894
O          -0.41409203916827    0.31523360929563   -2.02507678809995
H          -0.14110372305650   -0.60777957540600   -2.10173882551378
H          -0.98127963821124    0.34928757796625   -1.23350768418855
H           0.83475164417771    1.39297494581212   -1.76591008118316
N           0.95854615953263   -0.79034064929014    0.84898018538734
H           1.03063617645106   -1.44622083277765    0.05201047277020
H           0.84614991929141   -1.31489542301642    1.71620958581640
H           1.74810609929237   -0.05958833983928    0.88470730694033
H           0.04715751046606   -0.27830767053566    0.72193040443960
