    26
        -50.45788914  Gyration_radius:  2.41124531884 Dipole_moment: 7.662
 S          -1.66727781798169   -1.43864892566517    0.53546598679484
O          -2.52042128383102   -2.44263101386764   -0.00391641056559
O          -1.76456655496754   -0.15174260073357   -0.21757490251516
O          -0.15795263550319   -1.88531453229167    0.34537141978702
O          -1.75018459763711   -1.17011252673589    1.95954067620547
H          -0.30822383795580   -0.69112802007882    2.30049397940411
H           0.05278638986777   -1.93825279727583   -0.61346373986442
O           0.55527844575091   -0.21327917056165    2.48262465631153
H           0.88054078572784   -0.56238847915603    3.31323654818227
O           1.19220880672994    2.14665358160964   -0.81713117776930
H           1.91677911997593    2.72125334529288   -1.06556367179992
O           0.71618165971590   -1.70259606987901   -2.12460665309856
H           0.37273290885517   -2.35711213945210   -2.73442700708565
H           0.29740691214977   -0.83488830891454   -2.38066823018914
O          -0.51662167995955    0.58113783009459   -2.45298108878336
H           0.04563500277775    1.26739492952863   -2.06502915234888
H          -1.15055308116286    0.33735048974393   -1.74812947652888
O           2.09490189012916   -0.13232328783983    0.08263619818623
H           1.59645229249948   -0.35275369078888    0.88867414350592
H           1.88476997244445   -0.82350345507544   -0.55600069246687
H           1.60402465098839    1.28811345746610   -0.51324697474317
N          -0.67490851411851    1.71065727143082    1.09594810738071
H          -1.31580712217308    2.38423529342134    1.49827321379000
H          -0.01759006292347    2.14182023352848    0.42097760905241
H          -0.13942201724355    1.20232697987926    1.82529860713067
H          -1.22616964232350    0.91573159617224    0.54419805197366
