    26
        -50.45137809  Gyration_radius:  2.48710895854 Dipole_moment: 4.472
 S          -0.90788832118964   -1.71418029510878   -0.68720809549230
O          -1.70985960976549   -2.40104704333019    0.27568632853456
O           0.43997061841449   -2.20061425995734   -0.84702093458614
O          -0.84417600413893   -0.21361763132339   -0.33733643637060
O          -1.61707027802434   -1.67818464160456   -2.04645616928556
H          -0.95984241894103   -1.16982707070890   -2.61287822714967
H          -0.38085666096791   -0.03999110991464    0.56676648370920
O           0.18696945906449    0.24843888464151    1.92399053685127
H          -0.57456997709317   -0.11317991406759    2.42333461384117
O           1.37917352121951    1.52483079757338   -1.43574366950846
H           2.13980115642052    1.91929399013367   -1.86672222020935
O           0.42749765295687   -0.48970452338535   -3.01923753202546
H           0.95093611286008   -1.17244791996626   -2.58095821719332
H           0.60261783879047    0.33622094418359   -2.51777008849163
O          -1.97023502139424   -1.14591312391961    2.65475123604763
H          -2.00298023878515   -1.60636856606953    1.79327527112413
H          -1.99467192672434   -1.83686640568218    3.31934701005968
O           2.22707651616155   -0.43447137390720    0.13610449871504
H           1.73995500391586    0.83584792341156   -0.82032902281920
H           1.84248296457026   -0.24345398981979    1.00112894660121
H           1.72534857752690   -1.19750875447627   -0.20496687474783
N          -0.14900312713983    2.69807164542571    0.95822549379528
H           0.27396364668835    3.57305124182197    1.24125369651603
H           0.25069596193780    2.43027725266348    0.06105940916122
H           0.06108443694452    1.22946155156096    1.81513567700399
H          -1.13641988331181    2.86188240183734    0.80656829593074
