    26
        -50.44038424  Gyration_radius:  2.74188494939 Dipole_moment: 0.963
 S          -0.35371513813179   -0.14601765855709   -2.82225092955964
O           0.33931516123623   -1.36657004306817   -3.01870419336415
O           0.33833428091719    0.88271561185798   -2.09150537603604
O          -1.74464590963241   -0.35992094896001   -2.21359700704894
O          -0.74062782793764    0.45542415612102   -4.22133627641413
H          -1.07718845489544    1.33202559664112   -4.04770522803386
H          -1.66682737973613   -0.86855164473206   -1.30875653331337
O          -1.54051066566206   -1.53450439815304   -0.01710412638935
H          -2.31868390788405   -2.07891941174575    0.12044774202919
O           2.05676582726635    0.58418885355376    1.68278727765848
H           3.00863582375507    0.63903624023009    1.77083706558102
O           0.12674765574209    0.07271794622216    3.53709118525323
H           0.87948230528669    0.21054153740230    2.92910460038942
H           0.12095424151368    0.82337510995594    4.13315634919800
O           0.02797116572662    2.05263456685434    0.39356567436480
H           0.81306756007777    1.73226316929024    0.86461776133458
H           0.13441537205120    1.75052179967534   -0.52081339307986
O          -1.71506838471557    0.42033604246003    1.57997551150790
H          -1.20211573166611    1.12886915958871    1.12339632248430
H          -1.62069399747769   -0.75269147709598    0.65476521191212
H          -1.17702518336154    0.19969168804251    2.36877686235365
N           1.47057211513745   -1.13068714611146   -0.24187234301876
H           0.58932652677364   -1.58731786538150   -0.03014657979244
H           1.87210169442512   -0.11418269361586    0.98416515820578
H           2.09564319976628   -1.84526276380436   -0.59392838574537
H           1.28376964140067   -0.49971542663878   -1.01496637046178
