    26
        -50.44592110  Gyration_radius:  2.58187256249 Dipole_moment: 6.945
 S          -2.29409617673189    1.25173729003337    0.30731766229705
O          -3.40003581166116    2.07439924707684   -0.00829218680154
O          -1.28560867154435    1.81920426626078    1.17618532172247
O          -1.55813489732832    0.76119010415843   -0.98236312797711
O          -2.79808192743410   -0.07768287354162    0.89903341517186
H          -2.02879088734383   -0.71041956662701    1.05850976938155
H          -0.79296114648427    1.41293165114863   -1.11914410481780
O           2.36112731990024    0.94645599092766    0.11239980846052
H           3.09340828363387    1.43138531262362    0.49587684303185
O          -0.88370183958426   -1.76975856861418    1.19306487219627
H          -1.26642679083840   -2.59757138259260    1.48812503415128
O           2.49477153571623   -1.30541927367113   -1.47574193401917
H           2.47371596261813   -0.45866193737771   -0.99607958911906
H           3.25207170413642   -1.78843521785275   -1.14248858967547
O           0.33650420721091    2.44446415783342   -0.89221884480609
H           1.14495472892750    1.93083758237074   -0.67830968223193
H          -0.03680934428682    2.71443141152932   -0.04055671599708
O           0.73634890724158    0.29919067529129    2.03937683471927
H           0.01201527672601    0.93716959262994    1.88410583320628
H           0.33068882803119   -0.56843708145205    1.89641082981440
H           1.78722617146307    0.65319438898010    0.87835597434682
N          -0.31839987064518   -1.92395535033626   -1.31048848084396
H           0.68165665618334   -1.78966932915510   -1.46353099094608
H          -0.62654609461609   -1.89078385122803    0.19480309031477
H          -0.79280253272218   -1.08912411809714   -1.63958978696697
H          -0.62209358057021   -2.70667315031391   -1.87476124461084
