    26
        -50.46587165  Gyration_radius:  2.49421281907 Dipole_moment: 3.134
 S          -1.95855083888718    0.27596626695067    0.15776036783566
O          -1.33720547084011   -1.06320624580295    0.15247534563046
O          -2.48873870404100    0.62072231590257   -1.12601013940247
O          -0.96937011685267    1.26971933255347    0.61528637057278
O          -3.08728612535363    0.24980059656784    1.22945084330873
H          -2.64391504958254   -0.12929918884729    2.02048368411813
H          -0.27157642808879    1.65867360390860   -0.78137123176106
O           2.43022995483171    0.65599628836756   -0.08956236243998
H           1.87798748696425    1.23915492145855   -0.62146730045607
O           0.15772697756484    1.74235133743703   -1.67065860841627
H          -0.48442603182085    2.22010830960374   -2.20052012320610
O          -1.34368129729798   -0.98118709588909    2.81026711966632
H          -0.51602284608911   -0.50240473418704    2.96328980959123
H          -1.23388028436473   -1.37983934056080    1.93107549266949
O           2.44173648190762   -1.69342521534443   -1.29125973619626
H           2.47324977616767   -2.34748243906277   -0.59086750696673
H           2.60145610142670   -0.81792234886812   -0.85430675009067
O           0.93600042667293    0.63542600361337    2.23522324343241
H           1.99117343013092    0.57905865861348    0.77925634291975
H           1.13288976695327    1.41262262126297    2.76141571415907
H           0.18494327718734    0.89089462414515    1.63905121242872
N           0.02278241132433   -0.92276384212573   -2.04452882375475
H           0.10910703543430    0.12263173083748   -2.09032444795690
H          -0.42062682638275   -1.29097237346322   -2.87868507219729
H           0.98043360808122   -1.33936465372519   -1.87099973737627
H          -0.58443671533812   -1.10525913315752   -1.18447370592227
