    26
        -50.46161843  Gyration_radius:  2.73586768786 Dipole_moment: 3.833
 S          -1.87214977283875   -1.15700373117315    1.24551485842491
O          -2.02434823957933    0.22440741162680    0.84682912169521
O          -0.58172103042212   -1.41399608857091    1.88126322419881
O          -2.12287876740037   -2.09240827370099    0.15876954916433
O          -2.97472699933677   -1.43995339878523    2.34803423353547
H          -2.81288339488850   -2.35340778631454    2.56155790709237
H          -1.12811174859444   -2.01552910338678   -1.07698467174569
O          -0.25277563642189    1.97288324502242   -0.20368759046297
H          -0.88733086098591    1.70655404273283    0.48254627227434
O          -0.46228694787651   -1.88389542708162   -1.80701884551660
H          -0.46265942985242   -2.69676994655194   -2.31392270253020
O           2.35959252877145    2.79228276639334    0.17021244597275
H           1.40157183923062    2.63363398415904    0.11082743835517
H           2.57398029106127    3.41114032516040   -0.52940649248092
O           3.51528802601652    0.35974947109474    0.43279639533644
H           3.22227234547483    1.28957213093780    0.32697184464297
H           3.90850603414553    0.30021152532630    1.30468718550480
O          -1.80430431171027    0.61342248500405   -1.87082446922774
H          -1.38380312968879   -0.20696116201652   -2.16092252047818
H          -2.19427497012468    0.40435643516371   -1.00494191429957
H          -0.73931754306661    1.75827578804032   -1.03105928379599
N           0.96629798560480   -0.45090776612098    0.02007553509481
H           1.99365924159612   -0.36577661219501    0.16602772412623
H           0.72386729234082   -1.02823781834042   -0.80073682325059
H           0.46795639050581   -0.87145273174651    0.85597353061370
H           0.57058081803147    0.50981021532502   -0.11258196224858
