    26
        -50.45059467  Gyration_radius:  2.46312770971 Dipole_moment: 4.140
 S           0.69216977348632    1.39462724405259    1.25709256260286
O           1.40219593040203    0.63073442267253    0.24907773273120
O          -0.34852436414620    2.27578656831184    0.54615447539112
O          -0.18305339974304    0.40461257118238    2.07441814101937
O           1.49796131432732    2.14989879461093    2.14109961265804
O          -1.20724498725159   -0.91848662082855   -1.66931388345210
H          -1.54397500566000   -1.52037874630635   -2.33358555070647
O           2.14282773757753    1.69809420085473   -2.09150990629466
H           2.68774832003462    2.46913043669406   -1.92697796428852
H           2.07212627813115    1.22142949121662   -1.24253718733229
O          -2.24255427706953    0.09644073275596    0.57265799820993
H          -2.47549911128255    0.99913136961259    0.33809478856658
H          -1.95995334269314   -0.34496361646385   -0.25919810504044
H          -1.00993151122491    0.23303304158134    1.52700026566270
O          -0.51725769133051    1.69534884520789   -1.88336368406588
H          -0.41986095075801    2.05335208787538   -0.47345223356743
H           0.41906216187741    1.75240619956406   -2.17600414875574
H          -0.75570229117817    0.74749152272782   -1.93367980751577
O           0.84492615844110   -1.91203794108827   -0.50181152890642
H           0.54110582106135   -2.29996342985789    0.35177080152857
H          -0.38621094687734   -1.35849369313045   -1.26996019632768
H           1.25522086293802   -1.06466666587096   -0.25867070945439
N          -0.04417196889701   -2.60612479391590    1.98031596661705
H           0.02903731447906   -1.67197036162131    2.37092640425414
H           0.51958821312095   -3.22732770750651    2.54654782894688
H          -1.01003004776487   -2.89710398233723    2.06490831751574
