    26
        -50.46384642  Gyration_radius:  2.69276111989 Dipole_moment: 3.129
 S          -1.28630191911171    1.69426188956329   -1.12078303346424
O          -2.08902314972745    0.47755293593629   -1.10078454214150
O          -0.08178162924588    1.54355225421325   -1.91193596528704
O          -1.03224732505771    2.19197386678394    0.22313964033897
O          -2.15791493391535    2.80797798660695   -1.83684159636378
H          -2.10254542546217    2.54620028036618   -2.75044655249064
H          -1.25804267502262    1.32843456448207    1.63737109211411
O          -1.28564453641277    0.71199644744744    2.40503006717361
H          -2.14725750907520    0.83074369505291    2.80617329671605
O           2.38362255627049   -2.39025881674026   -0.93253445911343
H           3.24019555794978   -2.51961327446390   -0.52270296327887
O           0.10586253874233   -3.56844433833805   -0.08416482654017
H           0.98612306214409   -3.25763218486568   -0.38728431611957
H          -0.28097798534653   -4.03589292879681   -0.82588844062970
O           1.37523971212340    2.06472214636554    1.42621833473055
H           1.05700369958810    1.73192846159170    2.26954869593034
H           0.57234134552158    2.33797155450041    0.94244649423926
O           1.64412455492218    0.21265009472262   -0.47195024754477
H           1.81867607647672    0.87818125337324    0.22904222214593
H           2.20706201135272   -1.43257987270771   -0.89899665258481
H           1.12918540680945    0.71028143200652   -1.15031306042340
N          -0.56807179645233   -0.99847390582527    0.42504569565990
H           0.36548977154584   -0.59412713554469    0.14793052075537
H          -1.27077295522572   -0.56895459991797   -0.23525526073597
H          -0.51486513088183   -2.03445758995450    0.34401835071113
H          -0.80947931252036   -0.66799420585408    1.37391751621925
