    26
        -50.46384626  Gyration_radius:  2.69337249853 Dipole_moment: 3.130
 S          -2.31918368934732   -0.63531569611895    0.09466092816467
O          -1.99032911566876   -0.60011476892670   -1.31612823443530
O          -2.20051658491456    0.67544459640516    0.72158672761056
O          -1.58194469656990   -1.65161115803647    0.83098022008349
O          -3.84519833806344   -1.05391600525315    0.19021643069798
H          -4.24343266892699   -0.50440124532212   -0.47743321417554
H          -0.42598100545420   -1.35393991595493    2.00195281432309
O           2.08387724930492    1.64355442666191   -2.28613626197654
H           2.92608498986274    1.32059948208189   -2.60955551517252
O           0.33281683949594   -1.09447168028369    2.57378548484107
H          -0.01003129891208   -1.06545185796058    3.46767038110850
O           1.78108468087592    3.09554841712340   -0.02860291102938
H           1.98514178307979    2.65043433181330   -0.87922984834356
H           1.32337996155281    3.90614329812214   -0.25604899605277
O           0.70130880182466   -2.77238561273513   -0.05759008862126
H           1.18828572980008   -2.69420439034306    0.76699035940586
H          -0.22480226614932   -2.56832303177438    0.17489601057676
O           0.61382001358834   -0.54266026077436   -1.51594640780529
H           1.51879922350237    0.85892229878620   -2.16596678995302
H           0.82318411192512   -1.43904199631087   -1.17329665088293
H          -0.36553643632824   -0.55445687902883   -1.63258905258996
N           0.40165756395495    0.89595845707838    0.73158784128175
H          -0.64843312577826    0.99791163900615    0.76493970407624
H           0.89746244277408    1.80849504563880    0.66780613701094
H           0.67282550027441    0.33318560613180    1.55484951695041
H           0.60566030434428    0.34409690999279   -0.14339855510366
