    26
        -50.46712758  Gyration_radius:  2.54339125495 Dipole_moment: 1.896
 S           0.07271440579279   -1.47497023006049    0.06609467175325
O           0.21302146804431   -1.45024215068331   -1.38356264287480
O          -1.19970219252450   -0.93984907031869    0.51325870189526
O           1.18418769354901   -0.77781020094723    0.71606828143693
O           0.12297744632958   -2.96435073822460    0.53156289543424
H           0.86545918645246   -3.33963526341394    0.01466587397554
H           1.48060970056132    0.73546706797986    0.22529379601856
O          -2.49787690875219    2.23600137139029   -1.17289914663841
H          -3.21100148612049    1.61599778016037   -1.33533023449236
O           1.48102081345213    1.70866087282891    0.03625372464006
H           2.23367545839584    2.06699184488223    0.51005226343751
O           1.89868486413003   -3.44558814980420   -1.36062031990613
H           1.66679400734539   -4.09749674717354   -2.02605219449034
H           1.42600982590509   -2.62216959103682   -1.60373757681972
O           0.32577662957146    0.41828634542028    2.98458251649448
H           0.29972822529786   -0.22484767171617    3.69359632785679
H           0.68026673404506   -0.06097872354158    2.21112292220706
O          -0.28494507683930    1.09386139389673   -2.11054407179605
H          -1.72073125512813    1.88090307618807   -1.66934551412570
H           0.47048598277306    1.50334579394345   -1.67319966868630
H          -0.18336937282586    0.13538766235198   -1.95467326550832
N          -1.07861725538930    1.63096672029961    0.97575879577639
H          -0.10385570465592    1.86214148877865    0.68870780919720
H          -1.16962849183931    0.57575408143089    0.87188010043139
H          -1.21458513861868    1.87376105109222    1.95298442981234
H          -1.75709954895385    2.06041197624238    0.29808154493668
