    26
        -50.47250284  Gyration_radius:  2.48716605001 Dipole_moment: 2.891
 S          -2.23772103353859   -0.34335410251985    0.13572949122683
O          -2.22605756556154    0.09944129439930   -1.25320155099603
O          -1.33731284103368    0.43799595882548    0.96184912901580
O          -2.03388951532866   -1.77455673517288    0.25244924186841
O          -3.69646300564030   -0.05942215459168    0.68453894176707
H          -4.20202076593963   -0.70542699177050    0.20338969032276
H          -0.53258812945094   -2.20821642242441   -0.05958006233405
O           0.33089878675369    2.50991939734492    0.50297184820030
H          -0.36972017704716    1.93401710730346    0.86126560106094
O           0.42025555563632   -2.45306417549724   -0.19491111153920
H           0.41946082583854   -3.36874230310720   -0.47751790463232
O           1.88111693747317   -0.45620071011613   -1.35575120195334
H           1.40205145282217   -1.23440706339153   -1.01320434296473
H           2.26105799111460   -0.02254536901284   -0.57022677708874
O           2.42626162875736    0.79787657142243    1.03382532048681
H           1.81043707074477    0.16644232227246    1.50787500154422
H           3.19505750066357    0.89847443659554    1.59525305138889
O           0.71251700486414   -0.86531766906165    2.07366941562112
H          -0.11572343478400   -0.40507134187349    1.83020335576649
H           0.74730038930533   -1.62952208533833    1.47974604097267
H           1.16512712036865    2.08199202901450    0.76902150736474
N          -0.00211156611895    1.33400469065664   -1.82380587253510
H           0.76692537457669    0.60191531029627   -1.78558652184277
H          -0.93210533391339    0.84759328674914   -1.66716417447854
H           0.14596395618156    1.97721640732562   -0.98848657643122
H           0.00128178325055    1.83895828165857   -2.70235151983221
