    26
        -50.46368415  Gyration_radius:  2.44681364488 Dipole_moment: 4.357
 S          -1.29410581431157   -1.34769699113293    0.69243550437483
O          -2.70743009539492   -1.23313754094363    0.88201698535665
O          -0.69344042009491   -2.59532763663673    1.09107422991609
O          -0.63564845490822   -0.24121988228088    1.70241523942883
O          -0.83307563880276   -0.87993892332474   -0.61570866040485
H          -1.96902053605943    0.35129730751194   -0.49154417449065
H          -0.86203703708170   -0.61410538753622    2.54817252169642
O           1.36927803717690    1.54946577238124    0.97192708247478
H           0.71228643377187    1.11324500085534    1.53178360598301
O          -2.44514504452897    1.19706729043481   -0.37692153074270
H          -3.13346414167700    0.98238781634033    0.25735417756900
O           1.92703577280526   -2.62414688988992    1.40142760128981
H           2.22104392375644   -3.52209778975832    1.24068730111279
H           0.94513020943867   -2.65154177784340    1.34222220641501
O           0.47139370307348    0.47992944756052   -2.64564599425022
H          -0.18911352295750   -0.11999148286282   -2.26620950721052
H           1.31432221013729    0.14676291967755   -2.31038254193403
O           1.81900443876045   -0.64450386175552   -0.41689821162914
H           2.13300578673951   -1.32714507469628    0.20692321416218
H           0.85485019715062   -0.80866197651217   -0.46738477960307
H           1.76498636956553    0.79457161179611    0.46560898689256
N          -0.15592373806313    2.43446063348489   -0.95545131598841
H          -1.12415908754750    2.16648319732612   -0.67265353539691
H          -0.10350847374680    3.40778646816074   -1.23301590251451
H           0.50116672114139    2.20415037505989   -0.13602467596528
H           0.11256820165986    1.78190737457383   -1.74620782646493
