    26
        -50.45880586  Gyration_radius:  2.60627241527 Dipole_moment: 5.796
 S           0.43849908107863   -1.02544109674656    1.27195096391064
O          -0.68598516028613   -0.14692081878759    1.46489156982518
O           1.70746996226639   -0.31185663750294    1.42293614988217
O           0.39481835439324   -1.70160965285056   -0.03745057035923
O           0.37635763363633   -2.14022325301793    2.36239984097854
H           1.02027073593934   -2.80984050296486    2.05677926064639
H           0.49916794687030   -0.66950405951178   -1.21863639593019
O           0.64795625300929    0.00489584763701   -1.94330806839033
H           1.21777448934086   -0.42997446118858   -2.58058600643146
O          -0.99460312782783    2.73976561676168    1.08817590627960
H          -0.97273562950811    2.30991143213872    1.94838778900935
O           1.78923670025987   -3.75568534068813    0.80006438170614
H           1.31908054092374   -4.56924902475546    0.60411021082103
H           1.36987438165858   -3.05544946216511    0.25780296354621
O          -1.97845129032586    0.54632770965659   -2.58255079384499
H          -1.05112920055646    0.30411257785140   -2.41316764333767
H          -1.97063097727259    1.35084207329569   -3.10326879813993
O          -2.67236750670502    1.04114528646440    0.04013869423081
H          -2.56503450647869    0.80027115511459   -0.89710495590090
H          -2.15381352751506    0.39366567341664    0.54677676772833
H          -1.71776621087670    2.24377519578905    0.61050040321263
N           1.21149875322919    1.80302306396035    0.04692143978318
H           1.94991636150835    2.49491023368010   -0.02488045382431
H           0.30460178648248    2.23464917624619    0.44511682981957
H           1.02078893859979    1.35492653919589   -0.86476609699745
H           1.49520521815327    0.99353273897600    0.69876661177116
