    26
        -50.45695453  Gyration_radius:  2.6074381055 Dipole_moment: 3.484
 S          -2.19960970447189   -1.01778891968772   -0.31010337975739
O          -1.75803311775911   -0.90404129347142   -1.69946254883014
O          -2.03045862861657    0.22088245565199    0.40985119060963
O          -1.59293794844690   -2.16372358834503    0.35141699854547
O          -3.75725641706306   -1.31529952839792   -0.36347110886969
H          -3.78744057147331   -2.15103718560994   -0.81832927548651
H          -0.15259814681938   -2.00531203605635    0.95376016500658
O           0.15805373594614    2.42031641777797    0.63898857925198
H          -0.66383862183325    2.90755769184687    0.71727594637802
O           0.76053726514195   -1.89212999517586    1.34425752632910
H           0.92356137865062   -2.68408301191582    1.85897396817963
O           2.58739777847773    2.15758508871347   -0.94081319276033
H           2.00077713713317    2.50947719702626   -0.26174085888060
H           2.90491498363525    1.31280783110926   -0.60957433952765
O           2.22228357061965   -0.82274374189086   -0.61670067623948
H           1.75841873468212   -1.20568936069180    0.16046940159503
H           2.48413884281414   -1.56187544830266   -1.16770365808871
O          -0.25324775050324    0.49369458857599    2.36163212940505
H           0.12370833348644    1.74878624425214    1.37382360716966
H          -1.05944320897485    0.34400725264776    1.82782500487839
H           0.28886067378878   -0.29344926642997    2.20531645213488
N           0.19954369650758    0.78480465818353   -1.50049170093855
H           1.02754685541329    0.19467980366057   -1.26252333075500
H           0.41345968716391    1.33738036041418   -2.32615740260576
H          -0.64526943047457    0.15190751509989   -1.64392259359202
H           0.04693086295662    1.43328627102752   -0.68259692316275
