    26
        -50.45364369  Gyration_radius:  2.46350863304 Dipole_moment: 7.661
 S          -1.09909142285976    0.37532327189900    1.93191030123543
O          -0.50844638515859   -0.44175870592919    0.88058880587202
O          -2.33053162453385    1.01430745641547    1.53408287124413
O          -0.12990513046073    1.27047516634426    2.53274732923908
O          -1.49539548389250   -0.67701279992610    3.07349251323802
H          -2.06295989831160   -0.14049903529722    3.61601010020203
H           1.25012432729875    1.31878557470154    1.69913396901101
O          -1.60623603366616   -1.31653393271288   -2.02339917053026
H          -2.03991597885776   -1.22601119123744   -2.87366981553683
O           0.95582509218541    1.62510566193195   -1.22441787630556
H           1.30156970186082    2.45002609486720   -1.56708016337573
O           2.02270147468417    1.21726327037516    1.08667907426214
H           2.25656072163464    0.28340177955742    1.13157217295809
H           1.34585229055378    1.51927987488463   -0.30075963855341
O           1.68118325662766   -1.67835678047795    0.76897052448202
H           1.58477643688337   -2.53649496953503    1.18384300110230
H           0.81552734270114   -1.19466712594021    0.94784335909854
O          -1.87053221947202    1.08764035802785   -1.06742307005314
H          -1.80082107468284   -0.46187861456074   -1.53476773383114
H          -2.14205215525921    1.07275313407284   -0.12496901254866
H          -0.95123291407092    1.38969531230293   -1.06109510972162
N           0.98457130373471   -1.00571697973034   -1.74374820202511
H           1.31356578333023   -1.39255304637282   -0.82490095292006
H           1.54386716857555   -1.34807944176438   -2.51693202274177
H          -0.05186340543322   -1.24140029923354   -1.86140898069039
H           1.03285882649083    0.03690598738578   -1.66230227299203
