    26
        -50.45499978  Gyration_radius:  2.40443286289 Dipole_moment: 8.858
 S          -0.01184070553039    0.08116663271181    2.19466236942144
O           0.19124198954318    0.75395262614200    3.43089167158338
O           0.48732728284955   -1.28590656154621    2.09132811275197
O           0.83674812309237    0.89181480637002    1.08017727414350
O          -1.39418929250024    0.17534536177256    1.68695501021242
H          -1.53577768294784    1.53881280850667    0.93057817661773
H           1.23326377273078    0.16259340332470    0.57713241154332
O          -1.41120692702502    2.35261598205137    0.36287161995170
H          -0.78505941623181    2.88829528657373    0.85540731635165
O          -0.73485654475561   -1.54641637204617   -1.55025686953240
H          -1.16656569139581   -2.08315109806788   -2.21578328143853
O           1.69048748059510   -1.32613474137361   -0.20695026938108
H           1.38730245009629   -1.56048969649050    0.70262158959819
H           0.96867756347874   -1.60219645766731   -0.79372377058597
O           2.35782957790386    1.04692261458998   -1.42833707163518
H           2.42442605252991    0.11980807100907   -1.13923777805721
H           2.63775386080429    1.57706239525797   -0.67754727190492
O          -1.66947408011165   -2.20231995268043    0.74564551297050
H          -1.79347585004693   -1.29488413849616    1.11742493691271
H          -1.14771103778737   -1.82188326980095   -0.66476901141150
H          -0.93076015717270   -2.52728775041420    1.27779199148150
N          -0.33098085065802    1.13711259049562   -1.69134892313622
H          -0.59349772175113    0.12600728978039   -1.64521992677411
H          -0.66276222605231    1.54613046950116   -2.55904319949220
H          -0.76405344144941    1.65715348354554   -0.84895876593612
H           0.71715346180115    1.19587619695935   -1.63231187425342
