    26
        -50.45709966  Gyration_radius:  2.57770476221 Dipole_moment: 8.125
 S           1.63469987873262   -0.30878557778593   -2.21481071066836
O           0.73143657120743   -1.31300948413734   -1.65117525220781
O           2.73788511376494   -0.83110658915163   -2.95350679307304
O           2.31296056447172    0.37641299514261   -0.89524418855819
O           0.89118814017328    0.77672343492217   -2.82923344087750
H           0.17643493690915    1.48810955993564   -1.70743940585216
H           3.19875627460579    0.05234353488798   -1.01515372383693
O          -0.29891234898125    1.96476442903908   -0.95193683951002
H          -0.26673073992347    2.89329438301487   -1.18689145385474
O          -1.80497347655474   -1.64309639898813    1.26298496851120
H          -2.40864419910772   -2.38424767008406    1.20931549077767
O           0.95331330115262   -1.60729858861569    0.92201199881630
H           0.97000652575236   -1.60896798655602   -0.06656021547531
H           0.05578800109551   -1.89364645172209    1.16083545868382
O          -1.72138337425327    0.64435763610668    2.67176404752934
H          -2.47734077550537    1.13933355460118    2.35111523400943
H          -1.81744991194060   -0.26392279238033    2.31383295425085
O          -1.69574417011700   -0.47869149580163   -1.05916378646029
H          -0.86054196255641   -0.85810193501151   -1.41690844082686
H          -1.81586556085242   -1.20856856130173    0.36030343325283
H          -1.54032672246894    0.47424390438489   -1.05464144524009
N           0.61829758429799    0.93968162276044    1.36357014750022
H          -0.22171923873130    0.96061196636616    1.98556035875707
H           0.86568428386680   -0.10017581300325    1.18563080041876
H           0.37146733830261    1.37244891340815    0.44090641204817
H           1.41171395668418    1.41729340997931    1.77483439190452
