    26
        -50.46277073  Gyration_radius:  2.53918350082 Dipole_moment: 3.856
 S           0.54386141216998   -0.45657272622906    2.26939660909134
O          -0.86927378826398   -0.50649293750967    1.90494503153814
O           1.23796984015924    0.60597792629627    1.54221535561477
O           1.20533609917380   -1.72990598135314    2.19571084812369
O           0.56573258736392   -0.02327545535349    3.80447708052731
H           1.31357869996987   -0.49274259724442    4.16212624097543
H           0.07412333278605   -2.96181129188452    0.55895865564471
O           1.36087292381099    1.39036988570643   -2.32688749917715
H           2.00537143286251    2.00548799231402   -1.97303070407283
O          -0.49037360994553   -2.34165013374290    0.08745224445662
H          -0.75494870385681   -1.69777965658735    0.78383714932058
O          -0.94337507925058    1.94977771066058    1.04978806231495
H          -1.33662675721689    1.16332894554213    1.47345238398122
H           0.00738988624642    1.77012232564794    1.21213395151729
O          -1.57131065543646   -1.13503070484997   -2.08285687590712
H          -0.91808253160701   -1.37448304075912   -2.74466244722200
H          -1.35683206088599   -1.66852213394879   -1.29680887520890
O           1.57835761328744   -0.69076949202759   -0.75506992568137
H           1.51464630623418    0.53982999453518   -1.83698837951792
H           1.63218773611525   -0.23398854707331    0.10678703795212
H           0.91532701650096   -1.38699520804119   -0.61519767637167
N          -1.16069385943564    1.46583877004702   -1.51227129919749
H          -1.12546464763489    1.67937353588958   -0.45651110799070
H          -1.43593185383791    0.46580869413908   -1.67416918129921
H          -1.80907619969834    2.09002126754384   -1.97955075871720
H          -0.18276513968715    1.57408287836527   -1.89727592063554
