    26
        -50.47250306  Gyration_radius:  2.4873193336 Dipole_moment: 2.878
 S          -1.96831513617426   -0.02238200513696    1.12652975210420
O          -2.54597265279130    0.16432869139617   -0.19885214132232
O          -0.76708496676751    0.76926578310358    1.31109848940789
O          -1.79158839468075   -1.42502425633654    1.45063592241887
O          -3.02860233694405    0.53860991498631    2.16131866482795
H          -3.71556497454376   -0.11544832247380    2.09178683512917
H          -0.59188786665441   -2.09712626033987    0.64521781284837
O           2.66376723628639    0.65141056038734   -0.27127296331622
H           3.60181299094878    0.76039804581549   -0.11415961682601
O           0.19724374825078   -2.48318376995201    0.18216075611594
H           0.03616970691616   -3.42632943529175    0.12864819366128
O           0.61553358926339    2.49509183883800   -0.23710944616005
H           1.46419733528577    2.01605568553016   -0.25827803352252
H           0.11839384602332    2.08784616067205    0.49624414772176
O           1.08460305669788   -0.92875019109215   -1.88272181921749
H           0.77258381290734   -1.56537455357242   -1.21194746152954
H           1.78564743837429   -0.41509258842958   -1.44253419368597
O           1.50910612028699   -0.56779249416395    1.72009782184581
H           1.25261307372236   -1.42363218157054    1.34649736542657
H           0.67595316152339   -0.05577993798313    1.75055396150440
H           2.29160835255975    0.19740033294951    0.53980155744269
N          -0.74296397729793    0.97704761040624   -1.89735123381087
H          -1.10136846938972    1.31268809234276   -2.78377689350643
H          -1.53134384364487    0.65125832851921   -1.26617796583447
H          -0.06362688911541    0.17038164830083   -2.02562997798899
H          -0.22091393970609    1.73413332609867   -1.36077953186934
