    26
        -50.47250184  Gyration_radius:  2.4872057866 Dipole_moment: 2.864
 S          -0.51768974337495    0.42946733065748    2.16593338142367
O           0.68691803671267   -0.10003999205739    1.55561904279062
O          -1.68184009727997   -0.40055134467318    1.88196398994694
O          -0.75642560732792    1.82652075467648    1.85738427831434
O          -0.28592715884223    0.35993387170181    3.73155181764516
H          -1.01707979581789    0.87977642054824    4.04709945857385
H          -0.80066755513546    2.10609234869818    0.28880300736035
O          -0.76260253086162    2.27297707605788   -0.68932340076971
H          -1.28359273664575    3.06252170093302   -0.84259265085616
O           1.77745473340635   -0.52824734920136   -2.03827975300222
H           2.52048863418456   -0.48761293647140   -2.64054558621825
O          -0.92525675733753   -0.01437373649250   -2.17557570556002
H           0.01771788250654   -0.20895508303668   -2.32402412951065
H          -0.94057706660165    0.84238703200884   -1.70836880165696
O           1.24376974707064   -2.26150679774828    0.03762516899617
H           1.24489764466072   -1.58699893128043    0.74182682376232
H           1.57579742933744   -1.79666599017088   -0.75215281611844
O           1.85963782077886    1.41515629632029   -0.30563813922491
H           1.55813367659862    0.92635920630398    0.48644957241996
H           1.89032716416783    0.23261169302719   -1.39729316521133
H           1.10453927764129    1.97060458007382   -0.54838136249660
N          -1.32549458721508   -1.81028435403631   -0.28180627279577
H          -1.30431616470064   -1.12109661247620   -1.09010987425258
H          -0.33477935276725   -2.18457505338556   -0.17294067018888
H          -1.54264958470047   -1.27328795951648    0.60732081911568
H          -2.00078330825315   -2.55021217038123   -0.43454501230302
