    26
        -50.44296670  Gyration_radius:  2.77486691414 Dipole_moment: 5.092
 S          -1.41815591499562   -0.21489068729652    2.75721202550069
O          -0.71180806070679    1.00180336688970    2.98747788253718
O          -0.62032632709215   -1.35644508797216    2.39838422029141
O          -2.54675952269492   -0.03877438707574    1.75067992729542
O          -2.21255006512854   -0.58513295038708    4.06132993103868
H          -2.52637228061785   -1.47428499276528    3.91687474063617
H          -2.18867843615907    0.39104530949396    0.82388853618231
O           0.69648204564870    1.51345311673252    0.73665295003263
H           0.36148002944294    1.60397319183212    1.64214773607607
O          -0.55737469039601   -1.17781740191405   -1.69194625434381
H          -1.03959850942714   -1.82017923162749   -2.21274218701414
O          -1.60783836533019    0.88235898375828   -0.33717854957451
H          -0.75566023437426    1.29425576175039   -0.02567715635859
H          -1.33336840977431    0.09870812078014   -0.86532029724321
O           2.85963019824764    0.72173275370483   -1.09402342150050
H           2.69524473359070   -0.07860944300412   -0.58001459512623
H           2.45087105781799    1.43440584217930   -0.59058069908337
O           1.22059698552387   -1.10696280098774    0.44483392681386
H           1.00736613600198    0.58127864642201    0.67557234010270
H           0.70125008608420   -1.35880999797623    1.22857077406634
H           0.64923425884166   -1.31352460829710   -0.31348636211347
N           1.01967778689566    0.24875711033840   -3.23540765689823
H           1.77425706946207    0.46177862173158   -2.57501412790415
H           0.03137168146508   -0.65631401213633   -2.32874963054684
H           0.61159831510448    1.12931719011702   -3.52361085310306
H           1.43943043288525   -0.18112242436779   -4.04987317985896
