    26
        -50.46507242  Gyration_radius:  2.55385640515 Dipole_moment: 4.286
 S           0.27256919960278    0.95901005621121    0.08134941223513
O          -0.74484072485763   -0.10114515015440    0.06400804244035
O          -0.08090370443157    1.96709221022410    1.07385554791951
O           1.59820003423407    0.39837242315842    0.30211510388428
O           0.24780690045706    1.63518571361674   -1.31314183001222
O           1.20957677883063   -1.55497857591124   -3.21170854225508
H           1.19065108931454   -1.74930994970005   -4.14993957016841
O          -2.74420547135756   -0.31993878127327    1.77340515525083
H          -2.06339496855053   -0.32331627504703    1.06062958342481
H          -3.47578319874167    0.19771857986338    1.43365168828882
O           0.94380391690438   -1.33313355422854    2.14248587197653
H           0.37441572477106   -1.91815481810977    1.63525158077169
H           1.34319008782050   -0.73013990855558    1.47004623983061
H           0.02973902711709   -0.27434222294805    2.93745625712375
O          -1.17254873374266   -0.54228886298904   -2.51492711675934
H           0.29121964406835   -1.30214721542562   -2.96176895630018
H          -1.08176230681498   -0.48778053632226   -1.54074051564652
H          -1.13779549661280    0.37109287612695   -2.81202690759071
O           2.38970257496139    0.64107560137659   -2.22818784282137
H           2.57342183562548    0.41519523729568   -1.30241124102131
H           2.08602871498961   -0.19631148331459   -2.64776633939808
H           1.10505574208089    1.34113624358968   -1.77873598138033
N          -0.62978375628556    0.53453677489302    3.13333702176879
H          -1.59603528187786    0.21451270681467    2.89650004608044
H          -0.38271411346648    1.26306608479351    2.38029535569663
H          -0.54561351408096    0.89499281602193    4.07696791662360
