    26
        -50.45276050  Gyration_radius:  2.54791098001 Dipole_moment: 4.940
 S          -0.33371212396987   -1.77842664146106    2.00741705395196
O           0.08844115207872   -1.98493971566598    0.63222200819159
O          -1.68572915851803   -1.28142029354535    2.13145639913444
O           0.62101143552406   -0.94009302293966    2.73970048900954
O          -0.29277028056418   -3.19914668556956    2.69831844153882
H          -0.69378554690054   -3.03609167563065    3.54670796117853
H           0.86747454467014    0.26407755702376    1.97214218852964
O           0.75981208082318    0.42318232775933   -2.65047865352766
H           1.09472902673492    0.63088727822061   -3.52295759090036
O          -1.48769683637349    0.75674472043207    0.49740052855646
H          -1.76069972791252    0.11995719598532    1.19636648951098
O           2.01765798566586   -0.52249399139423   -0.45824504056506
H           1.66941990318698   -0.28900188606444   -1.34183487823315
H           1.46582502138228   -1.26251656541409   -0.12626986560868
O           0.90969576279401    0.98200535593715    1.20848116727161
H           1.47378782282932    0.47070383803995    0.47855729506104
H          -0.09276666869721    0.98629000126024    0.86590902432936
O          -1.32202488960856   -0.98337334313112   -1.45040319093878
H          -0.89542595791842   -1.57427814517341   -0.80409970660417
H          -1.53513716342358    0.19906833983169   -0.32800330212965
H          -0.62398009013402   -0.67155141900416   -2.04550850400069
N          -0.07410965624207    2.64742342658650   -1.40664511951738
H          -0.38170005078963    3.41844152153933   -1.98604406648166
H           0.44980130379520    1.27852988980613   -2.23866593402424
H           0.62852014655519    2.99942915183948   -0.76726422812765
H          -0.86663804511770    2.34659279071882   -0.84825897565043
