    26
        -50.45152948  Gyration_radius:  2.67337733107 Dipole_moment: 6.431
 S           1.00962036578517   -1.90906899229468    0.81970773037086
O           0.58160256837062   -1.83992931873098    2.18903364266874
O           2.22670566668408   -1.15361541802716    0.54865712608306
O          -0.07822712139504   -1.44878109828859   -0.08759190191533
O           1.31603925874438   -3.38983165148789    0.41700313278629
H           0.44303234713299   -3.82560027378708    0.38414980815095
H          -0.71698564457324   -0.30162813609436    0.97648241120557
O          -0.18397584570651    0.64828756981543   -1.78934820492179
H          -0.14681153042479   -0.25371602610681   -1.41947764473228
O          -0.81765431825683    0.41840282476886    1.63853452157745
H          -0.62965779560980   -0.04215201862976    2.46457652686696
O          -1.27892591892971   -3.80337405350094   -0.04123392706125
H          -1.08414171120587   -2.84721828886042   -0.09507706524252
H          -1.49627241395717   -4.09016034373812   -0.93097565948108
O           0.27200063700223    3.48737101256881   -1.25210767335319
H           0.19141536967867    2.76448148000740   -1.88647657561724
H           0.13829993545602    4.30003009595627   -1.74194340843169
O          -2.03128720019164    1.97744987351568   -0.34470730166041
H          -1.90423940872297    1.50349496238981    0.48884403660193
H          -1.46406950805102    2.75723098249850   -0.30548168548733
H          -1.02831628486343    1.01653420567674   -1.44710790569993
N           1.36241864549093    1.24420388981518    0.29132004668619
H           0.87497948093623    1.17268852775933   -0.64534845334799
H           1.89177027458675    0.31435879556253    0.41018847552605
H           1.94572242048490    2.07166715628666    0.35104511643733
H           0.60695771150496    1.22887421289434    1.00733483196858
