    26
        -50.45376541  Gyration_radius:  2.44414901948 Dipole_moment: 7.302
 S           1.11489027838353    0.87553971822778   -1.15500808493698
O           0.79127279007031    2.27876071995823   -0.97843779090504
O          -0.07013270432380    0.14128848726804   -1.65875149365888
O           1.32934995333584    0.31951478556739    0.32701405316300
O           2.30140730985022    0.55203945228506   -1.88555233172202
H           2.37187858960243   -1.14404434113711   -1.60831867390557
H           0.99445828485276    1.00363315644455    0.94700277114257
O           2.38041049637344   -2.11773125372749   -1.52830682700535
H           2.93057593152941   -2.42998977696835   -2.24887145951477
O          -1.97361754997823    0.17554304425733    1.83131363623122
H          -2.73847191527848   -0.21073432439620    2.25901103506068
O          -0.31651716194109   -2.50804887910076   -1.19237199600425
H           0.63278274945691   -2.70367025052940   -1.27824065399835
H          -0.37346835392977   -1.59432605284040   -1.52282761591914
O           0.15780244272248    1.83392017646838    2.17645296501550
H           0.66867718960753    1.76507726943429    2.98477567227499
H          -0.63479099563972    1.27880349141483    2.28825828475773
O          -0.30660182593116   -1.69819728441716    1.30721361733470
H          -0.45292264939080   -2.15101186677580    0.43499717976379
H           0.51326377052353   -1.20585895673371    1.15782860964957
H          -1.35605459138123   -0.60271446387814    1.61241496706391
N          -1.64631794403562    1.65141051601702   -0.43486958214681
H          -1.89811832249183    1.21908632047560    0.47579401917241
H          -0.79861842518203    2.26846193215545   -0.37415974876757
H          -1.18846234413243    0.88427053953272   -1.06461676730687
H          -2.43267499261605    2.11897785098980   -0.87174377483795
