    26
        -50.45059448  Gyration_radius:  2.46322221835 Dipole_moment: 4.140
 S           1.91572719481846    0.56100223251651   -0.13390730578099
O           0.80471088263847    1.22941158446199    0.51606006576106
O           1.88198342055912   -0.93458225198653    0.28596827635600
O           1.62574150202652    0.50660171676714   -1.64322408284956
O           3.19859449995691    1.09480141883726    0.13129561692753
O          -2.08760990079458   -0.54087368567529   -0.66115865722763
H          -3.02139839653823   -0.75301244954999   -0.66733590323772
O          -0.38811656307882    3.37704591224916   -0.54721247774920
H           0.03196498012206    2.70752754927840    0.02582622768921
H           0.26838827732331    4.05919364907130   -0.69595340000600
O          -1.29921530151571    0.01190402716657    1.71253541208749
H          -1.85076943024026   -0.30727030563613    0.29612219246177
H          -0.86908907527993   -0.79609096893900    2.07802321726884
H          -0.56267576946631    0.59092441910126    1.45241436554559
O          -0.70771006240568    1.26273491821239   -2.14305006701469
H          -0.74419235598020    2.13574433717933   -1.69346336426317
H           0.65770960761125    0.83317003966721   -1.86824703104644
H          -1.31015456655255    0.67782557565995   -1.64025995017679
O           0.10911062830563   -1.92396214576414   -1.28586831868060
H          -0.76011326657196   -1.51721082094221   -1.07218811268639
H           0.36825242432681   -1.58107642840865   -2.14573153518398
H           1.18952275542120   -1.37981766609487   -0.29281473818296
N           0.18670906371451   -2.14575988006456    2.46684523357531
H          -0.08104275149347   -3.04961300824114    2.09777808490792
H           0.41408809417116   -2.26386062487015    3.44602591963624
H           1.02958411892343   -1.85475715399263    1.98152035186811
