    26
        -50.46628265  Gyration_radius:  2.58606745437 Dipole_moment: 3.856
 S           0.73959068592000    1.26822521586856   -0.67679565661390
O           1.87613819420131    0.79965923373799    0.08309354084228
O          -0.50441666797084    1.12704887218947    0.08560607257509
O           0.64322645028960    0.62767005892375   -1.98651436108759
O           0.89844276391335    2.80960881486899   -0.91438782843566
H           1.61351549473452    2.85887942748884   -1.57655458702780
H          -0.86886082272693   -0.33821615242580   -2.10142710812207
O          -1.65706519057634   -0.54576448092688   -1.56588182334100
H          -1.60675533117567    0.17529217960086   -0.90819152582193
O           1.36204472937969   -1.50789837143428    1.17189820419041
H           1.69080064216434   -0.72410140175066    0.66719300882762
O           2.48454649167877    2.22012683765767   -2.95912634945204
H           1.93202393697052    1.43818631456664   -2.75296601986257
H           2.21813968849534    2.51774012918804   -3.83203017112154
O          -2.34843990903885   -1.17270351469545    2.25581148263493
H          -2.98172376363824   -0.55090552493460    1.89111169519328
H          -1.59037194197475   -0.63255873961766    2.55709633604160
O          -0.15179612321088    0.36272750737581    2.55553162075167
H           1.04001162785734   -1.10963915500781    1.99464754591876
H           0.21132874547892    1.09113551722475    3.06055373428480
H          -0.24426021189774    0.69767786409459    1.62696524658140
N          -0.95534047851853   -2.31252794309426    0.25524134310899
H          -1.23724790483130   -1.70840862814930   -0.57730767196802
H          -1.02832855950692   -3.30137243755945    0.04499018585814
H           0.04427098857604   -2.04904614425268    0.54858824604442
H          -1.57947353460905   -2.04083547891074    1.05285482000835
