    26
        -50.47250306  Gyration_radius:  2.48710052613 Dipole_moment: 2.885
 S           0.68807973429839    1.71353871842207   -1.31633818944822
O           0.03693878649660    1.70358037613002   -0.02042668352754
O          -0.10907860511536    1.03705473535644   -2.33231398903293
O           2.05322735463906    1.22509106372198   -1.28122134048362
O           0.77487067751243    3.23371426561199   -1.75359034874931
H           1.33301209595191    3.17184391891064   -2.52108125348025
H           2.16273255784617   -0.23689888927407   -0.65630759555882
O          -0.83169717663150   -1.06617072940343    2.40070377631622
H          -0.89234917296368   -1.30656734939028    3.32536418377812
O           2.22049066471640   -1.12049828030525   -0.20683142553342
H           3.01529012493733   -1.53628209807473   -0.54413291850863
O          -2.30096037959089    0.72965680860113    0.91302998059846
H          -1.94158269646631    0.11536908318148    1.57903724590450
H          -1.55502526184889    1.31553813301548    0.68682126885678
O          -0.20470114675053   -2.35547713368891    0.04899059035502
H          -0.45972751685251   -2.08192724785377    0.94860943215447
H           0.69764908059812   -2.00670175235770   -0.07958902130544
O           1.28251465523554    0.38409807115637    1.94040956494861
H           1.84355121404878   -0.19365605689162    1.40254191716277
H           0.89845797552748    1.01582324975930    1.29964764719172
H          -0.01228868479041   -0.49817028690012    2.30900986910586
N          -1.76172716758192   -0.66340109382466   -1.24907492321918
H          -2.48021276170986   -1.02395501795674   -1.86602061127535
H          -1.16664115869605   -1.44155664149607   -0.83804048278007
H          -1.12116374717142    0.00930878723100   -1.76206921166329
H          -2.16965943564126   -0.12335464368942   -0.42712746181194
