    26
        -50.44507714  Gyration_radius:  2.6171585297 Dipole_moment: 6.342
 S          -0.32971678663692   -2.93153474228715    0.38663678698118
O          -0.39675231461328   -4.22944757075002    0.95464089778563
O           0.68265852050235   -2.02916275415312    0.86540848422104
O          -1.71715792122401   -2.20358333682400    0.69916149802467
O          -0.30977422994731   -2.99283634028813   -1.12355286962740
H          -0.21887218490569   -1.98130423485826   -1.51228862785725
H          -2.34799646386689   -2.90774206587435    0.81841502134605
O           1.59910469661704    1.82247475017002    1.30108516305098
H           2.21103167004928    1.86911006196496    2.03651111512028
O          -1.71459188336161    0.93639532013780   -0.43925916815599
H          -2.59460280137212    1.17880783634636   -0.72766935477277
O          -0.10529299098161   -0.65779057783347   -1.87817886743345
H          -0.77112970972360   -0.15335671017162   -1.35898116677604
H           0.78296862406201   -0.39608208631490   -1.50425757605906
O           2.08953472385243   -0.14782115532707   -0.54972055968786
H           1.87485848936543   -0.90229552419938    0.02042439368615
H           2.01061576149340    0.63713004333068    0.02557823972448
O          -0.39895850618506    0.22816756437752    1.92270693746995
H           0.82641043406292    1.28089816914121    1.61812249561774
H          -1.06218999680813    0.41090767346248    1.23975080887385
H          -0.02713628303380   -0.63848208356854    1.68574380059834
N           0.03334052868383    2.86538018890058   -0.94171415206174
H           0.53866623831316    2.64148627106935   -1.79043641508663
H          -1.11487471764948    1.72378052368849   -0.61091198887897
H           0.67520925357538    2.73112665297630   -0.16369783132073
H          -0.21535215029098    3.84577410688361   -0.97351703478825
