    26
        -50.45930865  Gyration_radius:  2.54607943269 Dipole_moment: 6.939
 S          -0.44332538325203   -1.46079807982853    0.88062705527698
O          -0.06747403616170   -0.79414860137055    2.09477339803465
O           0.55953200458925   -1.31101570639675   -0.17938341111140
O          -1.74952394684875   -1.00408556976031    0.36757308249986
O          -0.57587045957449   -2.98433817863661    1.17821177191773
H          -0.95434489232591   -3.33436172104237    0.34941828770835
H          -1.85579640341736    0.53334987899419   -0.01270069760392
O           2.10995844941056    2.24318371016281    0.37501603342776
H           2.39844363840537    3.15176611834529    0.46682497730078
O          -1.84538087581295    1.48982880088613   -0.29177268454468
H          -2.76352783207267    1.75657770836305   -0.35626846168226
O          -2.04486557292464   -3.19399551779203   -1.02344168269347
H          -2.08344510907807   -2.27912862488965   -0.67359197148465
H          -2.90581634554511   -3.58624814692015   -0.86226037567175
O           3.08893628744449   -0.25759392868499   -0.88344272044128
H           2.43087711730231   -0.89318236140498   -0.57557707366616
H           3.16150690949312    0.40389353639731   -0.18896276989216
O          -0.00780995050459    1.84551116194193    1.84002427743559
H           0.00907827904153    0.89878943871054    2.09491703968197
H           1.38768730698813    2.10520131115125    1.04969315617259
H          -0.74716900959855    1.92539772318636    1.22091576361891
N           0.57276281614840    0.96958238438250   -1.40487727463205
H           0.57301996233419   -0.00914202995165   -0.95299200778291
H          -0.37157312341358    1.36363007962032   -1.27018654914331
H           1.27937165990093    1.52899244897582   -0.86336446654500
H           0.84474848945892    0.89233412550355   -2.37917270617751
