    26
        -50.46282791  Gyration_radius:  2.48682791266 Dipole_moment: 6.974
 S          -1.41927157373059   -0.80918236725847   -1.32296058045012
O          -0.50668911115069   -0.88594218656668   -2.45812917568157
O          -1.86037047656157    0.52212182170929   -1.00802409631501
O          -0.84704938376074   -1.50084088228604   -0.16439884894877
O          -2.70001041516413   -1.63611640613455   -1.74510622347005
H          -2.33549108006499   -2.36214425900430   -2.24099439736569
H           0.73411419514512   -1.54064510714353    0.03514069854680
O           1.72195814521976   -1.50122328348238    0.14029859835990
H           2.03581122860806   -2.40405491215545    0.07187838934304
O           0.07012045237849    2.34561933987010   -0.58585511569266
H          -0.76794658688143    1.88279068717142   -0.77902157892705
O          -1.87925786583368    0.08797545414368    1.75172421568819
H          -1.49351702775900   -0.57069300011456    1.14677551200013
H          -2.50628577263878    0.56749889563870    1.20318905116542
O           1.50010462492504   -0.34899292603199    2.66177490480343
H           1.68659536124918   -0.76045086855450    1.80253619206458
H           0.67565992209392   -0.73341833287317    2.97070201802571
O           0.12802140044069    1.92435491116837    1.99002454661316
H           0.15037902399668    2.31601609942812    0.40877744760646
H          -0.67973691031458    1.37557043527235    2.04047391865257
H           0.83556379529740    1.33130119367424    2.29707901737786
N           1.52844212961140    0.54338345142623   -1.65528372874476
H           0.76236873289506   -0.00853123332394   -2.13444567564798
H           2.23426974880448    0.85542654166378   -2.31298652354006
H           1.00673910230433    1.39443723125648   -1.17416161921498
H           1.92547835129682   -0.08426028761385   -0.93900696613043
