    26
        -50.46126942  Gyration_radius:  2.53135235738 Dipole_moment: 6.044
 S          -1.47673774171806   -1.74962121135876    0.07087608017607
O          -1.45613974488368   -1.11967887083905    1.38301121711183
O          -0.38672188071918   -2.67255013602636   -0.15450771340379
O          -1.60528574912979   -0.77184337712587   -1.00381957007316
O          -2.81093228101126   -2.61472185738678    0.04373152236790
H          -2.69841441629329   -3.15905795390665   -0.72927160666401
H          -2.05277085505877    0.85997306223338   -0.28750370212754
O          -1.96383000546397    1.28568057552816    0.58497044448467
H          -1.89021941306377    0.48929441904897    1.15744480522444
O           2.08167186474011    0.01901804409967    0.72946102274332
H           3.02672602259802   -0.04612543543282    0.87196933639008
O           0.84562743299899   -0.19069609786580   -1.85010271982795
H          -0.06450196423926   -0.49007060469853   -1.64766982788031
H           1.35308859641484   -0.34031261916900   -1.04042983936679
O           0.86011955731352    2.40634178119509   -2.14264800467510
H           0.79418848299067    1.41206832067144   -2.18447656205432
H           1.63919768948396    2.64211122147940   -2.64725454051938
O           0.98396021999979   -1.97055151649767    1.94900550125541
H           0.12615339964353   -1.60666480511272    2.22244618442225
H           0.71927922111569   -2.48910281715160    1.16084921407815
H           1.67485895052837   -0.75191999940988    1.23548221514483
N           0.47315659115773    2.19007780294434    0.47319135690738
H           0.64314998848039    2.97290408549074    1.09448802945166
H           1.10382341490816    1.38994502719813    0.69079559099246
H          -0.55677380790240    1.85364638759033    0.55365679197411
H           0.63732645711674    2.45185656452134   -0.53369523613888
