    26
        -50.46797313  Gyration_radius:  2.47274395108 Dipole_moment: 6.437
 S           0.41796534652412    0.56992628958256    0.88617020156153
O           0.81325300539883    1.55270426895492    2.00870757337818
O           0.33877773092157   -0.75835279088704    1.50845221755934
O          -0.90271805172621    0.95023578968999    0.38417073796760
O           1.42749846728548    0.60928625952336   -0.15523406919626
O          -1.92877264756208   -0.73238585224550   -1.37651021873262
H          -1.81196875495686   -1.73690094862539   -0.33127098198363
H          -1.72638321428525    0.04994418508287   -0.81834429819917
O           1.27721294962131   -2.81828861430092    0.08745327142159
H           1.11091914104416   -2.03297148762860    0.65080281105591
H           2.22102649520176   -2.97859310258597    0.12753941957353
O          -0.74976675040321    3.45230121008734   -0.47143060850867
H          -1.41728438579127    3.95027089840310    0.00312844390581
H          -0.87535355017125    2.51303841278330   -0.21684075280915
O           1.79436555011510    3.22156337265426    0.34225715997778
H           2.01953803543233    2.43175939958386   -0.17279436143332
H           0.95787607195631    3.55059808026604   -0.04844258713388
H           1.24386391775925    2.30899447580161    1.50644888287833
O           0.58621377655030   -1.12002425047445   -2.01491871116749
H           0.86438202855409   -1.91443533423114   -1.53386726072160
H          -1.08181947600993   -0.87996511885935   -1.87065540618751
H           0.95807500793375   -0.38277179187037   -1.49240068500736
N          -1.49558120858202   -2.34358527399386    0.54909778708915
H          -0.86827521829640   -1.67704732699525    1.09147478359247
H          -0.89887594257229   -3.11408759685137    0.24728586822178
H          -2.27416833393951   -2.67121316286508    1.10972076289703
