    26
        -50.45420291  Gyration_radius:  2.65194713954 Dipole_moment: 5.886
 S          -1.16481638768764   -2.17390547984009   -1.49464186789384
O          -2.19728260575054   -1.13852488747415   -1.55691580131908
O          -1.21675327157642   -3.14074411395775   -2.54133871258686
O          -1.46596958333076   -2.98710871007821   -0.12836383479354
O           0.13593948687738   -1.55367697591528   -1.25092929781936
H           0.16033481631806   -1.34378978393104    0.34205948023398
H          -2.00490999758117   -3.69115301438709   -0.47234476600441
O           1.49358776800633    0.74832488053958   -1.20333229498044
H           1.21229127510860   -0.12480355114422   -1.52764683266781
O           0.15035711431273   -1.20911348993917    1.32505337093318
H          -0.30255104973709   -1.98541752629816    1.66061654082602
O          -0.97720069823263    1.21190324292428    1.77001335088141
H          -0.22755214275147    1.82318074817199    1.78477002198281
H          -0.59713204875110    0.30873155012149    1.78253210327632
O           1.21549767599334    2.73896557232788    0.91327826077481
H           1.39104364896548    2.29840821528308    0.06951612207796
H           1.64013552129870    3.59651278872808    0.87573155171240
O           2.53572413282713    0.15447793632404    1.21521894504331
H           2.03471200414648    0.51258593346324   -0.41549575377907
H           2.31429726784057    0.94805415270598    1.71197674665731
H           1.83153924366724   -0.48931744389784    1.39979623266338
N          -1.19886330271849    1.12344885154435   -0.86094006440115
H          -1.63875580601255    1.89037852526661   -1.35727049481628
H          -1.64740067613029    0.18595878481620   -1.16095096586276
H          -0.17575738353002    1.06940958852384   -1.06923446154072
H          -1.30051499157112    1.22721421611856    0.18884242140037
