    26
        -50.47250294  Gyration_radius:  2.48726003099 Dipole_moment: 2.871
 S          -2.19814830518700   -0.37795935205052    0.41106595248657
O          -1.51589311453829    0.12292210108885   -0.76680425919397
O          -1.95749281408244    0.46151409028853    1.57831817830924
O          -1.93120549677531   -1.77756055633011    0.68250515896295
O          -3.74797173842774   -0.27853206623687    0.09804025647035
H          -4.11359101357531   -0.76457770385190    0.82913746696439
H          -0.37364468886793   -2.09045424508649    0.80881365137246
O           0.07489022928607    2.24511722248146   -1.27071400152854
H          -0.64289878127293    1.58584955339090   -1.30092728695925
O           0.60126222891581   -2.27900407482537    0.82155585663406
H           0.71024536871177   -3.06767728429717    1.35491977913983
O           2.12517368065290   -0.02031893943610    1.03572150091224
H           2.32606347246418    0.15923858739967    0.09960264466182
H           1.64023998397087   -0.86729239088806    1.03679451668430
O           2.13728150994210    0.46305424356423   -1.67649216898069
H           1.48656269498196   -0.28546278499270   -1.81351209299239
H           2.77406034167603    0.40197024468921   -2.38867687264507
O           0.37042455355656   -1.44508841155870   -1.82492825283673
H          -0.42582764300507   -0.93658789728123   -1.57061658383503
H           0.87058536457428    1.75922383947586   -1.55543694268218
H           0.56258720871308   -1.99491771344473   -1.05122763635907
N           0.25212595852165    1.81979522071903    1.31647906780022
H           0.20235220908467    2.18341939149961    0.31701999969501
H          -0.65847887385184    1.30473048367050    1.49417269351760
H           1.04516298236027    1.11356046038478    1.34529065525606
H           0.38613467216842    2.56503800162813    1.98989871914552
