    26
        -50.45896680  Gyration_radius:  2.62324339103 Dipole_moment: 3.327
 S          -0.43561173452547    2.13274600198542    0.39640167791896
O           0.33708525227123    1.35888845587097    1.34140883964967
O          -1.65771071118537    1.44291316842566   -0.01229542504829
O           0.33230221334221    2.57978236921207   -0.75456484156930
O          -0.90282413367445    3.44447533717371    1.15365412096596
H          -1.36147744045489    3.90302380899908    0.45788864099744
H           1.02941677347739    1.46616740998705   -1.63369351508064
O           1.48799767059796    0.75619210523827   -2.16271396008291
H           2.03687054698782    1.21811964343370   -2.79853753007192
O           0.78055698093929   -1.27358730987644    1.85834314598266
H           0.53865006687092   -0.37107435929004    2.12317918035299
O          -1.57613549463647   -2.89587669745919    1.98293300014338
H          -0.70149123217468   -2.52875431674008    2.17458882358772
H          -1.82578679838019   -3.42302103711126    2.74236280056475
O          -0.40066197201989   -1.08039608516841   -2.67199453415181
H          -1.05372658203993   -0.58035521029608   -3.16511550764131
H           0.36692295875937   -0.48043686358571   -2.55436433021626
O           2.54152555137586    0.05469423085103    0.33860954318265
H           1.62615614137718   -1.13505762718876    1.38582713936300
H           2.37992079577898    0.10827895217335   -0.61378153337370
H           1.96804078894138    0.73848873609199    0.72305117945387
N          -1.11232593866605   -1.10093937304969   -0.07236711625346
H          -0.86106055072775   -1.28632432218989   -1.06927854625698
H          -1.82502858486812   -1.74367037647550    0.27486857272373
H          -0.28234356456646   -1.21565975725853    0.55862908041701
H          -1.42926101284328   -0.08861687367234   -0.00303887558535
