    26
        -50.45919007  Gyration_radius:  2.4767445983 Dipole_moment: 8.332
 S          -2.12543484491049    0.63001164025279   -0.32741399840968
O          -1.96742152630723    0.24239736039086   -1.73488338713709
O          -1.55105072822252    1.90565407704181   -0.02444896580092
O          -1.64670227859322   -0.45334640743294    0.53384248051075
O          -3.68421173019452    0.73016440694662   -0.08943076670978
H          -3.99657378058116   -0.09760670733671   -0.43907702659901
H          -0.70571121463319   -1.64328518473500    0.02595861954291
O           2.13828245752708    1.00332000303147   -0.46138000871102
H           2.80202144144926    1.62705861912973   -0.75713503957233
O          -0.07734029646783   -2.32359938037114   -0.33845145320178
H          -0.45361718665390   -3.17900162854522   -0.12856355027167
O           0.09784227104732    0.03369681880437    2.63599639084615
H          -0.63048337528053   -0.15988730963108    2.02454482165102
H           0.84083864139452   -0.53186262203011    2.35336719826097
O           2.03536652560290   -1.31076619642820    1.20288328104093
H           1.38965966677582   -1.80142993801994    0.67354153934996
H           2.28187746821078   -0.53676987060869    0.67882696017877
O           0.75308507474174    2.21535746523512    1.27853471412752
H          -0.11017314171297    2.31083986271479    0.83366647952464
H           0.58455701859893    1.53059605053233    1.97111356870718
H           1.59161688242742    1.50850735443161    0.25245292425063
N           0.50584508008535   -0.33558292891912   -2.05543895996519
H           0.49143745585125   -1.27514978529485   -1.62294195079939
H          -0.51973082396913    0.00606327315966   -1.98748483348983
H           1.14457533931309    0.28245599686044   -1.47616512209317
H           0.81144560450038   -0.37783495917886   -3.02191390522815
