    26
        -50.46135322  Gyration_radius:  2.58147666683 Dipole_moment: 4.592
 S          -2.43913886226852    0.70032462057585   -0.24495189480711
O          -1.95586646866941   -0.11263948647636   -1.32546532598434
O          -1.45128954875425    1.68956437548305    0.19859140049658
O          -2.94603411107587   -0.07169181657697    0.88279380755127
O          -3.67557983570032    1.53985198049317   -0.78727087579818
H          -4.00534430043409    1.95765658305039    0.00284589112291
H          -1.81150974652117   -1.13275994393572    0.93591442176313
O           2.46175256610728    0.88571608940158    0.80736825233124
H           3.02922454709627    1.36793688104626    1.40956115911449
O          -1.03110342420379   -1.75905358420353    0.96133594701110
H          -1.40632360686508   -2.63394977826178    1.07635809711784
O           3.07534092808119   -1.38768692098453   -0.51058439402893
H           2.92982286365752   -0.59583673566863    0.05181103771624
H           3.76834638897312   -1.15158180235868   -1.12909461820240
O           0.68295981531512    1.41258836161405   -1.30477140068231
H          -0.15725459695597    1.64212176880944   -0.84556792856698
H           1.38457798444535    1.51068723242146   -0.64239769108013
O           0.16598896490421    0.56142665095745    1.98521247991813
H          -0.46971455767282    1.07183998994485    1.43773704071914
H          -0.14138474007971   -0.35266368007223    1.93683387260349
H           1.60412884584128    0.73831957302299    1.30233196463405
N           0.48795135406118   -1.20406637478726   -1.24919030956181
H          -0.13105520149942   -1.42786337504128   -0.43779802131573
H           0.07800966711177   -1.60833878588492   -2.08420263051495
H           0.48589229985459   -0.13265472404983   -1.36213245858256
H           1.46760278525584   -1.50724708850890   -1.06526784299117
