    26
        -50.47250296  Gyration_radius:  2.48730803611 Dipole_moment: 2.872
 S          -2.01010346057249    1.04525679671222   -0.10585093913897
O          -1.34982075185790    0.34791235326342    0.98102991878310
O          -2.21478955901084    0.18215264105772   -1.26284452613467
O          -1.36761096779838    2.29478034703762   -0.46578846633171
O          -3.45163332868595    1.42886141516012    0.42785539235426
H          -3.75608653452667    2.00347662000419   -0.26604629333594
H           0.17353152316001    2.10969859063894   -0.82628201144198
O           1.14604266049077    1.98649889772325   -0.98528179360355
H           1.41359475363559    2.70925757232763   -1.55490207308684
O          -0.43300689380439   -2.16734967303186    1.33286061373986
H          -0.90037724690508   -1.31850957986873    1.44076400239525
O           1.85063692176019   -0.63211001492613   -1.33047720950738
H           1.65598135679412    0.32349743511585   -1.29488789743499
H           2.12287228252118   -0.87247410888261   -0.42655611843676
O           2.11411877787083   -1.11670349378501    1.36863253627656
H           2.83587998288080   -1.26284208407027    1.98041386998595
H           1.75358053744762   -0.20419492963693    1.56870920767838
O           1.06337104059343    1.24384591378282    1.69620586685682
H           1.29838406186703    1.71270627514351    0.88198164126979
H           0.12066057959442    1.00990172961440    1.57887615882276
H           0.50664191772525   -1.95439155589636    1.48121551738108
N          -0.51855928073567   -1.79705517162051   -1.26761310891234
H           0.44005590007147   -1.37203043417800   -1.43732319036820
H          -0.72227858581016   -2.54187749635778   -1.92382106207375
H          -0.52932173016643   -2.13521263476456   -0.25813153281149
H          -1.24176393653722   -1.02309541056108   -1.33273847292538
