    26
        -50.46027698  Gyration_radius:  2.45787490866 Dipole_moment: 2.421
 S          -1.65309168554056    0.90219576740717    0.68745213472231
O          -2.26448358028419    0.04350203433390    1.66608524894850
O          -1.30275204053223    0.22452774985577   -0.55435548745347
O          -0.50998774883980    1.66430965874930    1.18221633094424
O          -2.74935645550011    1.98962384275399    0.30537814145564
H          -3.55205001461062    1.60706379654533    0.64539358088915
H           0.77360290927249    0.85789094114201    1.82340670203034
O           1.56044429967896    0.29192923768273    2.00969354794375
H           2.12448684500350    0.79701741361483    2.59708437450846
O           0.80367228050408   -2.70695874537747   -0.84017584916277
H           0.73540575252134   -3.66201640727886   -0.83682853408773
O          -0.25474330181724   -1.06551725147821   -2.87091648208960
H          -0.91288528673015   -0.60775370941051   -2.33739656202891
H           0.01090109292847   -1.82991630606297   -2.34006868230986
O           0.87421089925711    2.64095834115753   -0.89638588769112
H           0.24234824626999    2.93218010431734   -1.55584697359288
H           0.35021486075390    2.43661633440333   -0.09366421365115
O          -0.28534896779016   -1.76413560308512    1.44349203538767
H          -1.09894378851941   -1.23885368125855    1.53963596921493
H           0.34358936945172   -2.40286521250686   -0.02859122399834
H           0.39784749433489   -1.29025613878182    1.93244319441297
N           1.31220247728929    0.02291062507427   -0.70536785429728
H           1.62177259260119   -0.72321904846620   -1.32918986894278
H           1.68213584111784   -0.08309801750661    0.25372291664269
H           1.49955595488929    0.98582784962221   -1.04856420121878
H           0.25125198429531   -0.02196356554142   -0.64865235660126
