    26
        -50.46027654  Gyration_radius:  2.45774212381 Dipole_moment: 2.423
 S           0.35763077677919   -1.59162560726115    1.16623340727555
O           1.35210200049665   -1.22548840114742    2.13882119926495
O           0.70918529846579   -1.22878426091509   -0.20085084721772
O          -0.99136994333551   -1.12698648237660    1.47677290732965
O           0.27212815374327   -3.17966972452851    1.19592764745780
H           1.06784237448661   -3.42469919012528    1.65759034384293
H          -1.25510561940342    0.48323299030009    1.69189246068511
O          -1.35195719713420    1.46238760662835    1.61404255850632
H          -2.13805928362422    1.69707331549993    2.10935648066889
O           1.56961331911526    2.09528270817299   -1.35377470491639
H           2.33652792742264    2.65848145759946   -1.46066636883840
O          -2.51495043507771   -1.29505934145137   -0.72449218445787
H          -2.06393934143532   -1.33317112114720    0.14473440672619
H          -2.28686362528339   -2.10996465694963   -1.17492563526408
O           1.12971585285892   -0.25622468344011   -2.84601683473731
H           1.18113436816944   -0.88275310761058   -2.11651162204753
H           1.50539619876553    0.56511426504963   -2.49852004209479
O           1.43783833978706    1.30241620309073    1.22441968704030
H           1.59475492183988    1.78130613824422   -0.42453161884197
H           0.60871132105171    1.61990780352143    1.60130682319752
H           1.56690361960936    0.40415025110425    1.57595266740503
N          -0.83223761227611    0.75099339633793   -0.97956638794321
H          -0.43286426084095    1.29353031022585   -1.74629279384207
H          -1.66263823306981    0.18031987701167   -1.23327854679939
H          -0.11066270527936    0.02766605120754   -0.68456532622769
H          -1.04883623584747    1.33256421279574   -0.15305766619061
