    26
        -50.45059462  Gyration_radius:  2.46313873361 Dipole_moment: 4.140
 S           0.75277467683673   -0.37569101582764    1.81563468226181
O           1.05804685627476    0.70625073388499    0.89909569048708
O          -0.71893043229537   -0.24250644019964    2.24136280324452
O           0.76743852809926   -1.70208793306987    1.00653891202535
O           1.60992285331171   -0.49790970620001    2.93434586359817
O          -1.52339282286199    0.49765692648215   -1.58721140097299
H          -1.93977955628183    0.73660488207681   -2.41573820223660
O           0.14501861895518    3.19458923532409    1.27477494635368
H           0.66378271363361    2.38909596256073    1.08751057627210
H           0.42520801403401    3.50519380426564    2.13706157166263
O          -1.55045520655517   -1.71782225682502   -0.09751675769596
H          -0.12030272393752   -1.76142995114575    0.53625898925715
H          -2.13861662620965   -1.50458876445615    0.63236558142054
H          -1.60199918707386   -0.96482810534028   -0.72760025326143
O           1.02816537044191    0.55182297377539   -1.80572490295395
H           1.21573599642033    0.73651759430416   -0.86968582088469
H           1.33300929985770   -0.37477972521842   -1.94670025613285
H          -0.52318720773375    0.56658941598132   -1.73576445933068
O          -1.89352180478980    1.51448634764603    0.89933383401222
H          -1.30379950226784    2.29207002899400    1.01411493660864
H          -1.81400587561800    1.25528659746182   -0.04103639432766
H          -1.21894177954318    0.49814988026333    1.69772550285721
N           1.77427686321077   -2.07048662436508   -1.81164991989554
H           1.12891480483350   -2.73778466486402   -2.21523790326844
H           1.73723192242486   -2.18083313813559   -0.80316804152621
H           2.70740619683406   -2.31356604737422   -2.11908959757250
