    26
        -50.46369336  Gyration_radius:  2.50156496286 Dipole_moment: 5.123
 S           1.15873073531986    0.12473957080243    1.95866223955881
O           1.94212144793084    0.65429137923503    0.84039605153041
O           0.60724618982758   -1.17945663772863    1.67067013259723
O           0.17392211767338    1.09305887908444    2.40810551531114
O           2.17253458104852   -0.06716897361816    3.15670615392894
H           2.31196857258267    0.82579108839099    3.45444934953638
H          -1.04375887805782    1.30367418692320    1.40050284593029
O          -1.72730292432082    1.41116460464119    0.68690366677988
H          -2.35130692270559    2.06498379850452    1.00510193336778
O          -0.02931771616959   -1.31573586777843   -1.94053201663724
H           0.80363120190639   -1.68851888356317   -1.57653860879339
O           2.11624404667768   -1.84309470743368   -0.42857049676777
H           2.66551192500402   -1.05644448759647   -0.35980694314782
H           1.58707104931211   -1.82795717159192    0.39114585125145
O          -2.15114132139236    0.58151146351040   -2.46341420696718
H          -1.66014696030752   -0.16299743605815   -2.82527314977984
H          -2.77869480279928    0.20425428855833   -1.84337638774982
O          -1.65289396981559   -1.33015721366840    0.17664490860642
H          -0.70706552824387   -1.51653250995884   -1.25306640144948
H          -0.93521427566204   -1.48031435967795    0.81642914538423
H          -1.92663487748085   -0.41499781623641    0.33620202997663
N           0.29375603394645    1.14958236542578   -1.13361262995158
H           0.55180176792514    1.84697918104734   -1.82312569465405
H          -0.61001560211811    1.39674523158983   -0.68994667500295
H           0.16809897155860    0.17991289544252   -1.59335063944781
H           1.02085515863148    1.04668711122966   -0.37130595346925
