    26
        -50.47336952  Gyration_radius:  2.47356176069 Dipole_moment: 1.162
 S          -0.36735177742474    1.36917890230660    0.17975924832894
O          -1.06918497874338    0.66230987061060    1.23695359447115
O          -0.65827621884151    0.78976337730107   -1.12664490449175
O           1.07341292362811    1.42267751849960    0.42388786443641
O          -0.90673164166276    2.83159154948934    0.19139909034262
H          -0.26916653276033    3.32397694599019   -0.36263685266974
H           1.75754714520702    0.33085690324886   -0.70818917752834
O          -2.58080977791672   -1.50991567438190    1.45344227824181
H          -2.21078163296287   -0.60373566319257    1.47488953876149
O           1.94623556712206   -0.28491381132572   -1.44237959511896
H           1.34380604750282   -0.00976344245480   -2.13843418267737
O           1.32279547106055    3.62088573289753   -0.98793953381814
H           1.51290332872265    2.78414430599230   -0.51772899571646
H           1.85724966554909    4.29980873872471   -0.57003129483181
O           1.01143562942574   -2.51545020990870   -0.28975106619110
H           1.01578779158174   -2.17713751463106    0.63097444898807
H           1.52573169406895   -1.84560309845989   -0.79239474867253
O           0.84422449093610   -1.04753946582720    1.96493482492715
H          -2.13072556750276   -1.98411201078520    2.15696762413159
H           1.64073232738270   -0.51129939670946    1.97242843318373
H           0.12411654919064   -0.41152093678046    1.78548720164895
N          -1.37812703354431   -1.72538456531562   -0.92815495086627
H          -1.84182217859471   -2.13667068660351   -1.73016172393548
H          -0.42118626191420   -2.18618984091885   -0.72480282642756
H          -1.17282406363762   -0.69869227075963   -1.08887108028663
H          -1.96899097588347   -1.78726526700063   -0.06300320422443
