    26
        -50.46728542  Gyration_radius:  2.48732435034 Dipole_moment: 3.873
 S          -2.08600812225871   -0.33257469971713   -0.38375143575771
O          -1.33986338011451   -0.99516872551895    0.66220605746202
O          -1.39430429807749   -0.42247485906809   -1.67080311883280
O          -2.47800840537339    1.02581118106864   -0.07009080722891
O          -3.44239594954417   -1.14112711075278   -0.55281939437973
H          -4.05597291190294   -0.46349643840232   -0.81783375262250
H          -0.97651665933114    1.61462445496293    0.12668430099701
O          -0.02201539949099    1.85995728294477    0.13982907903873
H           0.16088118813335    2.18570332174987   -0.75258500146461
O           2.44796895346898   -0.48248922889805    2.39453104249022
H           2.98060188205867    0.04444639145748    2.99112754715583
O           0.36113530833395   -2.24908913957041   -0.98957499945505
H          -0.07771046888350   -2.49218883407599   -0.16549463759317
H          -0.30715968434514   -1.68712530153952   -1.43895874441841
O           0.54983511320405    1.22818738371144   -2.46759102329311
H           0.42477033999878    1.42515864490079   -3.39642782989279
H          -0.17528831225576    0.61174617496727   -2.22962380571847
O          -0.05909674912708    0.32985453592545    2.60468907470722
H          -0.08738341778534    1.19720623464182    2.18811358559059
H          -0.59567273677082   -0.24142299348513    2.01965556549191
H           1.50249714684429   -0.27346916561633    2.60852290503147
N           1.75620038200238   -0.14867089825993   -0.16362318863958
H           2.39652475070485    0.18133412529382   -0.87914131473585
H           1.27444822635703   -1.03676824467250   -0.49926669530362
H           2.22585277371089   -0.32546611140794    0.75382651740810
H           1.01668042043969    0.58750201937176   -0.01159993603617
