    26
        -50.46367853  Gyration_radius:  2.49938532496 Dipole_moment: 4.794
 S          -2.06514887885691   -0.93559861637650   -0.25742195726763
O          -1.31941037960786   -1.64315132463016    0.75005347642224
O          -1.31100051659525   -0.78549224901096   -1.51064659800678
O          -2.58731767394047    0.35022502076422    0.17246455526569
O          -3.31988093174953   -1.82824509487154   -0.61338560140624
H          -3.86072160793319   -1.22728251455217   -1.11497711935759
H          -1.50471419846992    1.40743261598138    0.66952431214474
O          -0.75610501777638    2.01506792294628    0.91214017749296
H          -1.15675065431630    2.82566924648958    1.22890256540597
O           2.22881795292601   -0.67602121390775   -0.06326768295346
H           1.85353036724808   -1.50375138262866   -0.43970874403951
O           0.60455193956195   -2.60620732233626   -0.95504290796368
H           0.18847307269814   -2.87646420322353   -0.12873529627957
H          -0.06896410048399   -2.03968718384966   -1.37004279793328
O           2.48193048248212    2.14039566562858    0.56436520337111
H           2.97149192634322    1.32634931347372    0.40941308634767
H           2.15410959456643    2.08228886185135    1.46414194007059
O           0.58869269645832   -0.18717153397904    1.97197501176371
H           0.19653366376513    0.68430466264585    1.81604949250629
H          -0.10551452304831   -0.81737482708638    1.70314609474895
H           1.78206981050590   -0.58253291403653    0.81211762112221
N           0.60002276422877    0.99627840133217   -1.22841854814491
H          -0.20308660837968    0.35341005272036   -1.46328424429825
H           0.92568058880040    1.51946150432750   -2.03347293791324
H           0.29717430111124    1.63644446747719   -0.47165880652975
H           1.38553594046353    0.37165263485140   -0.82423027456787
