    26
        -50.46619305  Gyration_radius:  2.55634215089 Dipole_moment: 3.266
 S          -2.20837922500397    0.59647479761887   -0.26472360498119
O          -1.14978185316753    1.53627040746118   -0.57183763951749
O          -2.59782347244723    0.55087200255785    1.12438628207711
O          -1.89500307589122   -0.73760285764864   -0.79333998767607
O          -3.49402412678754    1.08540578619628   -1.05598181640176
H          -4.17217394298733    0.92895438214660   -0.40808667433149
H          -0.94605302485109   -1.74501198063668    0.02965315548016
O           0.99632105614577    1.35343986165478    0.96421735455754
H           0.23090286436066    1.66214649729656    0.43564792967558
O          -0.27998002523599   -2.31399029991345    0.49628423791297
H          -0.63770703905322   -3.20265794414808    0.48545798962036
O          -0.12622701410967    0.02692281323432   -2.57474867680670
H          -0.25386542131258    0.96063203747642   -2.36341413110663
H          -0.86982106909584   -0.39791529989261   -2.09533527340421
O           3.72811250987994    0.80658717937655    0.26416258076635
H           4.49988933049579    1.29911812064118    0.54461943060318
H           2.96161391435038    1.25295955029201    0.65091368428087
O          -0.43393325067610   -0.27116013324154    2.45721394393468
H          -0.31359736810231   -1.13087134160815    2.03124685871403
H           0.57969997772977    0.85292963457926    1.70933191451399
H          -1.29660617675847    0.05758980645824    2.13387012238307
N           1.55824679430335   -0.65995435179736   -0.65389460343620
H           2.56672710913408   -0.72668024603344   -0.77402537726742
H           1.14059400790214   -1.50520695782879   -0.23557992087492
H           1.37229231246614    0.15471173708174    0.01482280604681
H           1.04057621872702   -0.43396321143700   -1.55086060478089
