    26
        -50.46287584  Gyration_radius:  2.52514558822 Dipole_moment: 1.501
 S          -2.01319728857452    0.81586615771382   -0.34401592503054
O          -2.04485541601810   -0.62302757296190   -0.50070748905069
O          -1.36430160490167    1.50210547171696   -1.44990836309348
O          -1.45719540892127    1.24107064960558    0.93747617869857
O          -3.52963502675381    1.28028223140415   -0.34448897914353
H          -3.48905470846676    2.22948681000593   -0.27678375631664
H           0.05853798838353    1.67046261559990    0.53560444123246
O           0.91098845913865    1.87813639074232    0.08114261209175
H           0.63459394323265    2.39115116765277   -0.68438106294534
O           1.19348058064353   -1.91564365764524    1.35580039464094
H           1.26557451312689   -2.85709755259163    1.51636040864455
O          -0.45097190591093   -0.66047733974627   -2.62284877017351
H          -1.10961306591467   -1.14832768097807   -2.10523957419932
H          -0.73879175832966    0.26488781512464   -2.47117914718616
O           3.12682111629888    0.27501469502204    1.25924517956990
H           2.59122908446493   -0.41950280305192    1.65885679438743
H           2.59045623107044    1.07316878582665    1.27182773392041
O          -1.25397265307208   -1.23730585535839    1.93537989871887
H           0.27050283195303   -1.65832856087811    1.64275371052592
H          -1.26594447719457   -0.28291523201072    2.09843889309691
H          -1.67196905013826   -1.29146904489467    1.05397510858769
N           1.56137957303734   -0.52142986263130   -0.92741348647036
H           2.51550542996565   -0.58727296275755   -1.26935222564328
H           0.83439651067368   -0.68281602906763   -1.68906030183241
H           1.43426511119421   -1.18367118162236   -0.12748243417474
H           1.40177099102855    0.44765254578426   -0.53399982885094
