    26
        -50.47250295  Gyration_radius:  2.48716635741 Dipole_moment: 2.890
 S          -1.90457351483284    1.01928660062248    0.69016420073847
O          -2.08744183694250    1.28131945964719   -0.73232080729640
O          -0.52411489748098    1.19113045507606    1.10062487225401
O          -2.47052321338861   -0.25611090100940    1.08570779584017
O          -2.73362387143494    2.12832227903361    1.45982952964265
H          -3.62445887344272    1.86876306541764    1.25134729984342
H          -1.61544475518271   -1.49570817553262    0.56476109458826
O           1.75322815869996    1.88600208549677   -0.17115725978506
H           1.00489999530218    1.84577521410389    0.45268773013778
O          -1.03700681010126   -2.25353798972368    0.28673883771635
H          -1.61289358595664   -3.01730197059203    0.22885048583628
O           0.82305455267502   -1.54771964359031   -1.58701814805624
H           0.13606337802847   -1.88240242665303   -0.97996147317885
H           1.59551746200614   -1.36206357112312   -1.02316120444431
O           2.65571662079809   -0.67894478519452    0.27708223552797
H           1.97926574326231   -0.80876628386143    1.00368783523951
H           3.49109417632107   -0.99080927861085    0.62562985382132
O           0.73775198314684   -0.97954792130545    2.01381331385744
H           0.17505021452322   -1.66098365651871    1.61776947370838
H           2.26326208110212    1.07306286972331   -0.00011599927575
H           0.25533975231362   -0.14324776081013    1.85562786634296
N           0.14755394591268    0.96495405785229   -2.03653126374090
H           0.14888758049184    1.31568452224852   -2.98722912396997
H           0.37573049665600   -0.07193996379934   -1.99748136400182
H           0.86410950954698    1.45926055144273   -1.42341644690454
H          -0.79644429203166    1.11552315767492   -1.57592932446122
