    26
        -50.45792497  Gyration_radius:  2.59235666118 Dipole_moment: 3.545
 S          -2.00485409150509   -0.13926620485644    1.01728209565458
O          -2.17756200201635   -0.23299802061177   -0.42979696170590
O          -0.66368546686608    0.29909181282099    1.35522554106807
O          -2.44587275897527   -1.32074716547417    1.72092987369636
O          -2.96136762838389    1.04344296633303    1.49798683097014
H          -3.81542007615601    0.62322711890393    1.52244680704463
H          -1.15528816023892   -2.25026615641672    1.32303203437775
O           1.14368581019886    2.05973875789577    0.38606902368771
H           0.36227681207728    1.85206810927621    0.92490364618688
O           1.20585549415094   -2.11910181765010   -0.95231063290816
H           1.26161503409882   -2.90281411950800   -1.50030991200699
O          -0.28781463610696   -2.67963578088999    1.14770680274381
H           0.60017387550738   -2.35303733532485   -0.20361916005313
H           0.22197135264622   -2.56316302882348    1.95334899128008
O           0.96772218492062    2.79768269146716   -2.38409705330983
H           1.09859710291217    3.68507177357889   -2.71947336435550
H           1.12968740619485    2.83614513761342   -1.43087227542973
O           2.00434635201225   -0.36803625865333    1.25101705573326
H           2.06618173115874   -1.01731789887085    0.54255505593204
H           1.82557356785183    1.46009234681969    0.74121513711546
H           1.05765935258776   -0.28865929536384    1.45759625916468
N           0.11923708857179    0.31284307170671   -1.47064041108351
H           0.62036424009765   -0.59662686582735   -1.47241987343760
H           0.14282088899736    0.78342792343114   -2.37363038301768
H          -0.87800201235021    0.12484609929391   -1.13142409601486
H           0.56209853858455    0.95399212909456   -0.77272103136376
