    26
        -50.47250315  Gyration_radius:  2.48732358389 Dipole_moment: 2.885
 S          -2.19150788132996   -0.38487993576327    0.43991760260081
O          -2.39627042881238    0.82480961354793   -0.34761308224108
O          -1.04369535048083   -0.27205965173127    1.31930877918949
O          -2.17061223695749   -1.57584831270991   -0.38764323147192
O          -3.45662389874800   -0.52507534239721    1.38303018916117
H          -4.13431922375013   -0.73577160335881    0.74995804214339
H          -0.83737667367857   -1.70256346986283   -1.25084269752904
O           0.77314714554996    1.66207097576063    1.81667395358499
H           0.08441204305640    0.97863723162639    1.91261207176787
O           0.02551322757589   -1.79802644961172   -1.73312270001805
H          -0.16009556828721   -2.34135055875507   -2.50039542219787
O           1.49083456898427    0.50852350452965   -1.76236510351543
H           0.98574476659955   -0.32132068394427   -1.85594975181740
H           2.07700351235789    0.36733312503716   -0.99710930179388
O           2.67081801052915    0.01956843361631    0.67818204766730
H           2.08014024468589   -0.77888399401413    0.80456006408175
H           3.54055087471609   -0.23535436388346    0.98645531690559
O           0.98350335252895   -1.95489444377819    0.87667657171174
H           1.57476305133228    1.17256894055868    1.55596323678961
H           0.19603171147823   -1.45462857416910    1.17132755347411
H           0.79194463466731   -2.18544942078203   -0.04422562320972
N          -0.17898978644469    2.17627347231284   -0.57812495769601
H           0.47177624794651    1.58892226077658   -1.17828688332706
H          -1.11816854319326    1.68495406567484   -0.52652656866193
H           0.22135198993967    2.16538451349149    0.40841028559659
H          -0.27987578027790    3.11706066776861   -0.94087038120467
