    26
        -50.46944018  Gyration_radius:  2.47830295797 Dipole_moment: 4.358
 S          -1.95879386626447    0.16065034059771    0.65902411974113
O          -2.83007677237074   -0.03554733264995   -0.47265876479303
O          -1.09997850029864    1.33078407172485    0.54419940496517
O          -1.19267017930445   -1.03397157184739    1.00043396765043
O          -2.90057940691417    0.45787437350318    1.90220274611534
H          -3.66910125047562   -0.06800553126665    1.70702771436357
H          -0.36433861714825   -1.85395298714696   -0.22556460709502
O           2.69475184123281   -0.06093184080331    1.68513697571609
H           2.99265803989331   -0.84349534938336    2.15169094353904
O           0.15371685573263   -2.05707398264625   -1.03399811821569
H          -0.37659433979189   -1.65072656353083   -1.76071873096247
O          -1.22964522559216   -0.40997819332801   -2.57676716335832
H          -1.95237047349814   -0.30053894876553   -1.92695096019727
H          -0.73186321963282    0.41602186545871   -2.54515107981874
O           0.35840673942467    1.74444364975124   -1.53755349404180
H           0.47928300436107    2.69244459567850   -1.61011587888912
H          -0.23879095725795    1.60814757979545   -0.75266029424695
O           0.29610562286029    0.38378874132712    2.63909294088541
H           1.82158182856712    0.17968302111996    2.10297540756679
H          -0.07409648227534    1.16756632441558    2.21242783085210
H          -0.21194470729612   -0.33645079854707    2.21669973115239
N           2.03267228698998   -0.29261875513458   -0.88360757365893
H           2.82000861105052   -0.46482913809277   -1.49878397552276
H           1.52660114329909    0.57113589750242   -1.16843544538648
H           1.30410019602582   -1.10644567104795   -0.94612141988470
H           2.35095782869723   -0.19797378671038    0.11817570349455
