    26
        -50.47071163  Gyration_radius:  2.41583207819 Dipole_moment: 4.183
 S          -1.96229959184261   -0.12234496765101   -0.49484956988346
O          -1.26504812545426   -0.64569773777508   -1.65757919553320
O          -1.65046101736094    1.25257563908327   -0.18755875855858
O          -1.79339225203816   -0.99583678853267    0.66872160467763
O          -3.50397633487846   -0.15953121417364   -0.85326173879762
H          -3.60912344106877   -1.03353136157089   -1.21318580382034
H          -1.30180314788591   -0.01507637428223    1.89713274074105
O          -0.95709275211972    0.75162934946697    2.41125950415802
H          -1.39650609609346    1.50140425688466    1.99436467195058
O           2.18414872241165   -1.27041144278986    0.09458102920672
H           2.90734472428522   -1.88617348523858    0.21763286751278
O           1.22704862704600    0.27603977008930   -2.13794385551379
H           0.30423228509281   -0.04216020354167   -2.10947889018514
H           1.72255767232095   -0.29309610625982   -1.53417646393764
O           0.70402557927459    2.40440567165746   -0.66226432636656
H           1.00356018060503    1.79898805606175   -1.38161590878695
H          -0.24691644997711    2.19411053975576   -0.56614831464127
O          -0.00133272475494   -2.60183148766157   -0.35267098204034
H          -0.65596629246920   -2.20781703363689    0.25854377269678
H          -0.27918430574230   -2.22401036900733   -1.20119889866057
H           1.36297041210014   -1.82998206070148   -0.03676340843646
N           1.46571782394189    1.02588202555728    1.39009336129202
H           1.80467823058715    0.12661428720408    0.99740819793071
H           2.15983392452204    1.43721796125121    2.00377584047206
H           1.23186544892864    1.68643267761950    0.55305942365260
H           0.54511888056716    0.87220039819280    1.90212310086914
