    26
        -50.46862859  Gyration_radius:  2.47521296257 Dipole_moment: 4.022
 S          -2.19876571388172    0.41832408266625    0.19469996404859
O          -1.61278781865538   -0.93294014990640    0.18177886061861
O          -1.61918389721457    1.24302413969998   -0.82987016622910
O          -2.19122825436363    0.98907759725363    1.52570510967004
O          -3.73097124046424    0.21533986234264   -0.17071034848092
H          -4.10602313859039    0.06334478216056    0.69031795280218
H          -0.64769724259909    1.39858066305616    1.72059563400763
O           0.31933435858271    1.54929386475616    1.86178356636240
H           0.39163208004216    2.37513131135076    2.34352809445668
O           2.20753748451835   -1.60060274148483    0.10756148988591
H           2.84752879949383   -2.25509802624949    0.38763994552433
O           0.52678554027639    1.18088875194416   -2.40797816030517
H          -0.31393223523861    1.45237264591903   -1.99422897277724
H           1.21124703440659    1.38739602057549   -1.72935260901547
O           2.08971539642844    1.23005204454583   -0.24989303369800
H           1.47069413813841    1.42401504206575    0.47472839550102
H           2.34672822165565    0.30525952595289   -0.13481087982050
O           0.40241616570667   -1.20580456312594    1.93275177554569
H           1.55844928398355   -1.49450658115592    0.86524053810421
H           0.51299746521594   -0.27812160205139    2.19178369688632
H          -0.42122809917642   -1.21340715731644    1.40566875303912
N           0.19346567510823   -1.27811979885180   -1.69239912790208
H           1.04198312415694   -1.54588361206917   -1.15799996651872
H          -0.03501627783730   -1.96677016289092   -2.39968955381432
H          -0.59889986925189   -1.17399613496852   -0.99592438994191
H           0.35521898956022   -0.28684979421966   -2.12092657794927
