    26
        -50.46147004  Gyration_radius:  2.59045272638 Dipole_moment: 4.221
 S           0.02276048364665   -0.45457563008915    0.59615732963494
O          -0.69788790942183    0.66602835691107    0.00781028051954
O           1.19149620110757   -0.79748158141797   -0.39908347167942
O           0.72289807233443   -0.01635647332625    1.81600292636836
O          -0.78662047467878   -1.63332753447333    0.78897389702359
O          -1.60837207949707   -2.14526083590076   -2.94519116933005
H          -2.25229178243293   -2.75002128193838   -3.31679132105530
O          -0.08182412943026    2.40925021652898    2.68793565082412
H           0.17149159419188    1.48417878822514    2.49607748728995
H          -1.00641117104667    2.38253640291173    2.93866493124720
O           0.54854229336779    2.97200198648327    0.13721220989289
H           1.80073806403843    2.18011963066372    0.32180841662757
H          -0.02550671209813    2.20869085217218   -0.10858835671872
H           0.29956647468481    3.13323145199101    1.07048489858207
O          -2.72361335798321   -0.85557566811130   -0.89705625206331
H          -2.31467039005400   -1.37110220204535   -0.18266326749227
H          -2.25592347202120   -0.01010300442833   -0.82703928260225
H          -2.09133044953442   -1.60888911170620   -2.27091374487656
O           0.28313487979843   -3.00447088107697   -1.26172281284559
H           0.94232934027410   -1.67774849963521   -0.83369090683530
H          -0.25625066414216   -2.98546696569592   -0.45636260363930
H          -0.32719632810004   -2.75994709857865   -1.99628095028294
N           2.49986240437593    1.37200248515615    0.58876260884026
H           3.33784767702141    1.70459520744063    1.05478606109315
H           2.71551003570513    0.80872998547603   -0.23241552976161
H           1.89172140989348    0.74896140446662    1.22312298124895
