    26
        -50.44926349  Gyration_radius:  2.43973095939 Dipole_moment: 5.014
 S          -1.52060615993718   -0.14414918988454    1.54516554737761
O          -2.24180867986146    1.07415662701256    1.71369634205358
O          -0.38283145418903   -0.34366943745427    2.40218349761289
O          -1.04143271810885   -0.24192935462657    0.07068283224452
O          -2.45640009204059   -1.36496417613806    1.66009638639656
H          -1.83037004566724   -2.12301661765836    1.47140911932081
H          -1.24437289166064    0.64108800449868   -0.39451769610783
O           1.12984419531772    2.41587980755945   -0.34171915030135
H           1.54085607413091    3.16414796836285    0.09323377198193
O           1.25591011199966   -1.81075610921673   -0.76066821158792
H           1.86608754925769   -2.36696403529836   -1.24775327799348
O          -0.37816112224902   -2.82859458986557    1.23430938897838
H           0.03545436969892   -2.32627238294764    1.94712021816820
H           0.07704424690738   -2.53093756922290    0.42300524155882
O          -1.49583195322523    2.10795909313708   -0.73138350366900
H          -0.56511568320588    2.40611712726067   -0.61486087558106
H          -1.95663692703033    2.26931631549242    0.10379091289855
O           1.82942971534658    0.26734289557399    0.99941980918839
H           1.42098497842382    1.61156699881291    0.16926292714545
H           1.12102536903782    0.11929821378635    1.64963615534818
H           1.76799037200636   -0.49101969165069    0.39369083452046
N           0.61258236255735    0.17132795849883   -2.46813612308450
H           0.91792017678460    0.99840090897329   -1.96536802369828
H           0.92094734738247   -1.12229243421131   -1.39672378978247
H          -0.39389018070078    0.23624394621773   -2.55728224173285
H           1.01138104898710    0.21171970299374   -3.39829010115513
