    26
        -50.45719764  Gyration_radius:  2.49370649526 Dipole_moment: 3.856
 S           0.03718786842426    0.75149515619020    2.05161282659905
O          -0.80370739886801    0.30754821976701    0.96695079890851
O           0.86692264805540    1.88371073718193    1.64439601811247
O           0.80458124751166   -0.30621166346524    2.67952637312655
O          -0.94445061092587    1.30258748180173    3.17944286429030
H          -0.36973205529773    1.40595651389456    3.93190969354618
H           1.26216648439191   -1.10527424853329    1.38407045008007
O           1.54317020609933   -1.61448500628295    0.58099470326095
H           1.84341306171428   -2.46578598625160    0.90564850191611
O          -1.36752519659000    0.70917028873128   -2.08685414256892
H          -1.43940595284639    0.60107481954779   -3.03628601476952
O          -2.62130236362004   -1.57243273278000    0.48904736984214
H          -1.98993351605434   -0.89664390465306    0.81323311341231
H          -3.39221312584333   -1.07974816315504    0.20281333647938
O           2.13640580430307   -0.28553293464914   -1.68262908058183
H           2.16263119177448   -0.73897593010940   -0.81804014462219
H           1.49627206415453   -0.78963225520482   -2.19540460332138
O          -0.57147727402754   -1.69450691863648   -1.27761490675402
H           0.11634628861661   -1.63510733030680   -0.59256842159085
H          -1.37886998903413   -1.89388051245180   -0.76499947289210
H          -1.12555283276081   -0.18217155783252   -1.72416655569148
N           0.74927077979493    1.88339917542639   -0.93980043928497
H           0.99972153284962    2.78637183669041   -1.32825308732034
H          -0.19845590042432    1.57497608467493   -1.26657252702015
H           1.41956681060853    1.13145693188277   -1.24788436500629
H           0.76497023799473    1.92264190854416    0.13142771185630
