    26
        -50.45719755  Gyration_radius:  2.49370081316 Dipole_moment: 3.859
 S           0.63363948692866    1.86456451467003   -0.94683086060619
O          -0.73613829435258    2.37321796923752   -0.91079526287636
O           0.65053495940745    0.42491263556153   -1.03451401953359
O           1.45840580507667    2.40435630494618    0.11626714185680
O           1.27131163923230    2.40118502270738   -2.30506314333654
H           1.40756912939080    3.32685075917035   -2.12686066901897
H           1.10443815398739    1.37392969352450    1.27359496587712
O          -1.18628568899143   -2.10928317076379   -0.93375402620464
H          -1.63034998986869   -2.92036339045596   -0.68228392651482
O           0.89610467120086    0.72925067261294    1.99755765351024
H           1.57829064753282    0.85422086013258    2.66033084529056
O           2.42809860331791   -1.54898789408379   -1.13618198129657
H           1.88578987205667   -0.73289775762372   -1.15428491172717
H           2.20777841298655   -2.01535354983060   -1.94421647752803
O          -1.59722223073454   -0.26171388285298    2.20433259220465
H          -1.28432875309095   -1.17106109094274    2.15948038612464
H          -0.78161442307280    0.26981480631856    2.28243114688412
O           0.69864981796879   -1.86741925453305    0.92465946683853
H           0.78535040267580   -0.94905776655714    1.23296891625614
H          -0.43035901123066   -1.99962608958260   -0.30034873516386
H           1.45128865411204   -1.96750678308437    0.30993702130242
N          -2.18556970942632    0.30593610779175   -0.34755132763149
H          -2.08433931244408    0.17112929778994    0.69222840416757
H          -3.15532495647751    0.44264136187778   -0.61185560137972
H          -1.59989815480105    1.15844175244417   -0.62975158234435
H          -1.78581971139071   -0.55718113846159   -0.78949602514776
