    26
        -50.46111935  Gyration_radius:  2.71292555473 Dipole_moment: 3.928
 S          -1.43865092447083    0.00764906925848    2.00125593771231
O          -2.00292456963470    0.73411369772644    0.86686166376335
O          -0.03504641408732    0.29677802464227    2.20098505802121
O          -1.71554567903152   -1.41784513510318    1.90834435671415
O          -2.19866374484496    0.53558541538724    3.28644397573980
H          -3.10530706104483    0.34390830656954    3.06938947334835
H          -1.13779942773965   -2.20159251371585    0.65288806919814
O           1.81738511644719    0.70144010217865    0.33978118980412
H           1.23296082523375    0.86991197175441    1.10637227488209
O          -0.72675494713254   -2.60762958586889   -0.15900090568973
H          -1.20964955406244   -3.41908669530561   -0.32038590750876
O           0.03522875413159    1.30947894276961   -3.33551787215966
H           0.70335855594227    1.84348913294874   -2.85472646756194
H           0.45393178244061    1.02049457832792   -4.14712215093593
O           1.86404853737129    2.51037910042099   -1.74726401706620
H           1.64205187591046    3.35613550127660   -1.35438028060627
H           2.02150045522213    1.90003154314695   -1.00658630466034
O           1.58519847371039   -1.78863072154878    1.29838312483289
H           0.97576401655286   -2.32970924209553    0.78064419096269
H           2.17601060481563   -0.18376661487323    0.54508591901584
H           1.02204403455198   -1.26450412974456    1.88969236473794
N          -0.39771493078353   -0.05029670378936   -1.03001756409086
H          -0.50410651532070   -1.07732216119891   -1.01346518205726
H          -0.44794758680796    0.35166910457359   -1.98581469483154
H          -1.13591536983827    0.35099552061381   -0.38422227833495
H           0.52654367245181    0.20832349167890   -0.60762397322078
