    26
        -50.45878651  Gyration_radius:  2.59570149095 Dipole_moment: 1.880
 S          -1.72980991233607    0.42384273726141    1.13500864110247
O          -2.11487960991581    0.01685114247487   -0.21628034990675
O          -0.51363802577523    1.20478956444921    1.12140868721359
O          -1.70163226065794   -0.70457775755411    2.04781364284894
O          -2.87921467738166    1.37970696849645    1.66325290705901
H          -3.56083878085594    0.75116463220992    1.87502615276427
H          -0.59427093551658   -1.82939884354528    1.73853831557052
O           1.91319489133788    1.54927155768016   -0.17423018264743
H           1.20004379259143    2.02276158038537    0.27535671460717
O           0.11018767243801   -2.48147697266150    1.48637950744414
H           0.02097804555190   -3.21607650634305    2.09551356035912
O          -0.65769022116487   -2.29440158493046   -1.11683841244686
H          -1.46856483112574   -1.81868947646526   -0.88792636360446
H          -0.26822789328397   -2.54603407905502   -0.25967788537330
O           1.60892426712906    2.04091693782546   -2.99067103741635
H           2.10276779336190    2.67886409680997   -3.50646606300479
H           1.97266822084872    2.06421105061166   -2.09475064438831
O           1.71074684266072   -0.21832845982966    1.80103490976854
H           1.43751106945652   -1.14054047450167    1.69440073269274
H           2.18700713604100    0.88472099500419    0.49467428310679
H           0.87702780510645    0.28103433164823    1.84433962340120
N           0.07944435731972    0.19386329719758   -1.62798619091403
H           0.15532992384854    0.62906468127514   -2.54787359710065
H           0.11470958518277   -0.85127305017283   -1.66238321122099
H           0.84268225942447    0.60132707461270   -1.03130492134199
H          -0.84445649428219    0.37840654711045   -1.15635878856921
