    26
        -50.47417982  Gyration_radius:  2.40984118107 Dipole_moment: 3.510
 S          -0.87061475438339    0.22143262015411    1.73792120849932
O          -1.82716302339932   -0.34716100015680    0.79905345608026
O          -0.46583904280477    1.56899222179289    1.39701484332304
O           0.25489472586806   -0.67243023003676    1.96475779163126
O          -1.63387844891595    0.33548819849043    3.11968767723991
H          -1.95991692810435   -0.54904969889626    3.24401188980018
H           0.90326298569087   -1.54938272308233    0.78396205164056
O          -1.90535142012472    1.85008565273282   -0.76280076573148
H          -2.37537573154472    1.06745376013606   -0.43904685975222
O           1.30577736121959   -2.07050571130645    0.04183051277867
H           1.79219065763890   -2.78697066950100    0.45179954792913
O          -1.05748949210598   -1.78893606090914   -1.30917292037427
H          -0.22045976688785   -2.14461692366095   -0.96633452993120
H          -1.47683619027797   -1.36543056029693   -0.53122058077861
O           2.14512661199375    0.24441614536351   -1.21135363363993
H           2.03067111028901   -0.66959090938105   -0.90084966321164
H           2.25945694155028    0.76866431605231   -0.38470927330821
O           2.16282751656027    1.28462346698593    1.24357924526501
H           2.18927159112887    0.50360876935549    1.80419843844907
H          -1.34619973371053    2.07635884388385    0.00667366214509
H           1.23833390260081    1.58938613515007    1.31571040848657
N          -0.22585839577980    0.50261247291321   -2.30921737293342
H          -0.59961134727254   -0.46892255548849   -2.08740451240210
H          -0.23141752567737    0.69035205975418   -3.30515304987634
H          -0.85282116210104    1.17811462907958   -1.78622928624494
H           0.76701955855894    0.53140774088549   -1.91670830508232
