    26
        -50.46575191  Gyration_radius:  2.54828035171 Dipole_moment: 4.200
 S          -0.05758028419639    1.11624661125309   -1.15013625024246
O          -1.38309496515552    0.73319672746799   -0.67102327652266
O           0.63554584590126   -0.00125038828792   -1.74742483182434
O           0.71624083757495    1.73891572648764   -0.06730065871483
O          -0.24714379495786    2.19613015571418   -2.26118634414306
H          -0.58339613945914    2.96118764321312   -1.75726947861204
H           0.99667114125769    0.75302796732439    1.16406622599718
O           1.20057020189631    0.13627176266086    1.91503506768109
H           1.79495410446348    0.61329542365078    2.49666458093163
O           0.37876553877723   -2.73150816335695   -1.51615720300893
H           0.41937313218555   -1.93086795984206   -2.06188225170178
O          -0.60793034839449    3.97867790302510   -0.33055862673890
H          -0.10428136516386    3.21273175473138    0.01557158963550
H           0.00595824143438    4.71584015540237   -0.36561041957749
O          -1.00929617447826   -1.27805700238759    2.52359753285600
H          -0.14837298451601   -0.83380191549922    2.37941189429170
H          -1.60930218428225   -0.59282483484098    2.82485070401135
O           2.28755473770200   -1.46635679108352   -0.11887271060762
H           1.16900662134447   -2.63621881037578   -0.94489738627547
H           1.95077353273811   -0.81308452072463   -0.75515302784431
H           2.04469186522097   -1.11257147556065    0.74753293644197
N          -1.58752085385792   -1.77493155223974   -0.05977766261455
H          -0.81808536726291   -2.27928249651456   -0.60549246623570
H          -1.38651937158652   -1.77263848617537    0.96684867400939
H          -1.56201262193604   -0.74961171216496   -0.36727946715314
H          -2.49556933526071   -2.18251571186356   -0.25355713403208
