    26
        -50.46544355  Gyration_radius:  2.48652477874 Dipole_moment: 3.831
 S           0.92410345947278   -1.91799810020137    0.59831743910146
O           0.86161474660607   -0.67502394261001    1.32820300758908
O           1.94138336581394   -1.93485603218524   -0.43716382826952
O          -0.38118547383125   -2.32193707263655    0.07641336681166
O           1.34062692078597   -3.03453636138773    1.64510573070999
H           1.53245916305658   -3.78250954329958    1.08838468217329
H          -1.46526836751533   -1.13386986712865    0.07040605248346
O          -0.68285431444589    3.22277021440070    0.86063917621223
H          -1.40191202144085    3.81867186267559    1.07251598805566
O          -2.07668647963385   -0.37499555557584   -0.11679278623009
H          -2.68623319888519   -0.70586917258776   -0.77978149551839
O           2.21059260178829    0.66030215758436   -0.61583507031203
H           2.28388781141359    0.85818415226206    0.32301730575369
H           2.20904548237555   -0.32471279668643   -0.64672414337718
O          -0.01787031890677   -1.03855710977255   -2.29985844768614
H          -0.17555652563206   -1.62707908722980   -1.54400877457238
H           0.89907150060942   -1.19639896056866   -2.53450242853629
O          -1.09172618380066    0.96793389115796    2.15851077771053
H          -1.77215328081179    0.54962257462793    1.61708199033342
H          -0.30852968250592    0.39926425167488    2.03015897402778
H          -0.77508514096885    2.44698076420721    1.47541256139778
N          -0.28243566042449    1.44312556344335   -1.08801770380512
H           0.71638795324448    1.09787895276882   -0.94241164656036
H          -0.42367555099589    1.62756354278991   -2.07578551683514
H          -0.94318433873392    0.69084479363162   -0.77796915960709
H          -0.43481645663819    2.28520088067163   -0.48531606106669
