    26
        -50.45346859  Gyration_radius:  2.74457968625 Dipole_moment: 6.037
 S          -2.24241279434025   -0.36345858103197    1.88859476995726
O          -2.80049871181792    0.06004569991285    0.59964935794751
O          -2.03860863236973    0.70510300511001    2.81904090673846
O          -1.02569837588933   -1.15861125218910    1.66229769045893
O          -3.31303138879070   -1.35870756034876    2.50729463639662
H          -3.52806715483588   -1.94424696630573    1.78637066101487
H           0.10098111492493    0.05649130501884    1.99638091241363
O           0.52702640245170    0.94362427436309    1.97599641731404
H           0.00609232884888    1.43709306543648    2.61934231579113
O           0.46365704406962   -1.55499952420768   -0.52143320449002
H          -0.09109184509489   -1.66987443086131    0.27587252749551
O           1.02226026892381   -0.87696598591923   -3.10215475142338
H           1.70970452747463   -1.43773587106944   -3.46487414323961
H           0.71519167612383   -1.31732015341726   -2.29028625584782
O           1.62534793007129    1.52596889231697   -2.01429550390882
H           1.41486119606460    0.70407847521472   -2.50786354581490
H           2.27173626011884    1.99929322659582   -2.53885797709029
O           2.50046844209829    0.02362917903961    0.19132284802254
H           2.13575412682087    0.40019299320851    1.00210310698295
H           1.32617875675990   -1.21131787037593   -0.19119577416039
H           2.32912494252403    0.67613477265183   -0.50854175437663
N          -0.62654751248072    0.90514160584985   -0.46534834664580
H          -0.53363244929313    1.58172543203732   -1.21801304433686
H          -0.20656298597583   -0.01923861951515   -0.73779161947054
H          -0.11332319168755    1.20960762541203    0.39212440985347
H          -1.62890996471403    0.68434725306736   -0.15573462958254
