    26
        -50.46787420  Gyration_radius:  2.44384551464 Dipole_moment: 3.552
 S          -0.10201411691880   -0.55839188203997    1.25726469695163
O          -1.41432624043981   -0.61926002143365    0.64983391298375
O           0.25302278333531    0.81330663122605    1.61298141425636
O           0.90837560075780   -1.15679557447668    0.38086360809074
O          -0.10616755226366   -1.36527329392175    2.59045549451981
H          -0.14926870791624   -2.29675319756844    2.29505932063142
H           1.28634954828080   -0.13593328977624   -0.89111101563695
O          -2.86845594047144    0.92614754900604   -1.07648340636256
H          -2.79264097541304    0.38627519576048   -0.27324149872004
O           1.42722904651422    0.61687307291535   -1.50819455989402
H           2.11952125247364    1.13465790464188   -1.06369989218790
O           2.55270598585157    1.83562435626340    0.64616602716118
H           1.76891780269314    1.47363029023726    1.10582555844532
H           3.30665923088179    1.61296067091646    1.19327736345419
O           0.20610891062456   -3.56325682165415    1.16507083163005
H           0.54277820026695   -2.82135886087105    0.62495838405240
H           0.94772288141657   -4.15311803146634    1.31835804572570
O          -1.14744964771487   -0.91250920253514   -2.06599824735547
H          -1.15252891983865   -1.04199450544339   -1.10188780143370
H          -2.56497349829061    0.32021060364948   -1.77663786334765
H          -0.23594636461086   -0.74027187988373   -2.31350843184310
N          -0.56625757921197    2.08160693097020   -0.56448386939122
H           0.17042397210584    1.58655888660978   -1.14824973565061
H          -1.54481912372621    1.73788043493123   -0.83413317309702
H          -0.36885996351967    1.74923469721379    0.41077862876279
H          -0.47610658490109    3.08994935681367   -0.63326378175880
