    26
        -50.46798838  Gyration_radius:  2.52110409556 Dipole_moment: 2.310
 S          -2.06259521306957   -0.29964634209823   -0.52012810863308
O          -1.15356752545291    0.21900036972186   -1.52883213759482
O          -2.62965067558527    0.72711831636265    0.31830562007819
O          -1.44921965246436   -1.39486399242245    0.22622158058154
O          -3.27946620448271   -0.95944428898102   -1.29617364193195
H          -3.83571790369602   -0.19792494865705   -1.41670979197311
H          -0.42479894171833   -0.99786580826910    1.41210607368391
O           1.31932698348491    3.01022605629369    0.16014145559362
H           1.98669524399407    3.23486530916369    0.81033185221792
O           0.25010146993585   -0.72510416335786    2.08295906229444
H           0.00231629680365   -1.15808168555162    2.90135233693527
O           0.43820657131785   -2.63164985468324   -1.15554962594455
H          -0.31232120897290   -2.16509052055160   -0.72818550035649
H           0.15915355551323   -3.54176199810309   -1.26179981183008
O           2.24215027190188   -1.21433028571650    0.25057648979853
H           1.70133380917095   -1.05941558679006    1.04482371993948
H           1.76133664958374   -1.90053657517815   -0.25305234808374
O          -0.57330351496410    1.88124135680373    1.57709982423725
H           0.52806623198472    2.70629704701845    0.67954105045633
H          -1.39442317873295    1.60547808196215    1.12479572782999
H          -0.18112383297741    1.05719328839883    1.90703746175205
N           1.39849530939381    0.76625857201335   -1.27894633308141
H           1.83753724924875    0.00041035004872   -0.68242463676514
H           0.37275845315502    0.53307395550819   -1.40205943535857
H           1.45670310097418    1.69168727664615   -0.78197656131746
H           1.84200665565138    0.81286605043602   -2.18945432252881
