    26
        -50.46798898  Gyration_radius:  2.52095019158 Dipole_moment: 2.299
 S          -1.77175966890604   -0.44221710079404   -1.13039060807013
O          -2.71457092260090   -0.40884206665649   -0.03994635999299
O          -0.75920339953287   -1.47460529364939   -0.98406995408995
O          -1.16247975490821    0.85321067354752   -1.41913314035058
O          -2.61046277060962   -0.80300354610658   -2.42850174902249
H          -3.26416052338069   -1.38132895079194   -2.05169373173278
H          -0.56072058402718    1.68226454699651   -0.16856789344218
O          -0.13920384269362    2.13209049220773    0.60593822784701
H          -0.49465891232730    3.02202273200620    0.62330141173565
O           0.63295916386839   -1.49033384035975    2.86366155474349
H           1.06150152587518   -1.03454759452819    3.58973443779511
O           1.21046610401933    0.62183509384885   -2.56722778058277
H           1.14652598899238    1.02570677461187   -3.43338085487384
H           0.30216655997460    0.63009915545905   -2.19524308975484
O           2.30118455836643    1.11865140682662   -0.15780089085374
H           1.56074383108626    1.62167749011470    0.22427560962331
H           2.10260164863481    1.06190143072532   -1.11318470319671
O          -1.29549060834021    0.13719457324440    2.15850839944952
H          -0.18743813376221   -0.96612128698402    2.66273146966887
H          -0.84622104055253    0.91795818968035    1.79753359594682
H          -1.91030028513712   -0.14694820939258    1.45411320274715
N           1.49772510612111   -1.34644924516353    0.34485840424950
H           0.59917930303150   -1.40826727330937   -0.21219756279775
H           1.91362837949969   -0.37832344432513    0.18715902074961
H           1.25187791214462   -1.47521749521481    1.35957636498351
H           2.13611035515899   -2.06840722196890    0.02994660923025
