    26
        -50.45271697  Gyration_radius:  2.43560726547 Dipole_moment: 9.049
 S          -1.92925082948403   -0.23871100993105   -1.29800629398982
O          -2.10337377834110    1.07102675977254   -0.67027135819413
O          -2.70029863906853   -1.29082333458859   -0.70981700865540
O          -0.50515315525525   -0.56581715295382   -1.38453700039415
O          -2.42244729667375   -0.06509128113358   -2.80260984306964
H          -1.87017349657143    0.62771078160837   -3.15571105313387
H          -0.47378962560480   -1.66526179080820   -0.27849647289872
O           0.80875442624827    1.11727600701285    2.08183632549002
H           0.85528067359257    1.41708082631033    2.99023698515127
O          -0.36356510588651   -2.25197789548930    0.52160462168066
H          -1.03022298858350   -2.93222054641177    0.40920692719677
O           0.34245310749736    2.09785954043411   -0.63325042475393
H          -0.57643515186491    1.76718098441806   -0.72416446655900
H           0.52610572984229    2.05322604577030    0.31319556341620
O           2.28721825161637    0.52392207403434   -1.46103090005851
H           1.42323095353562    1.00090840659132   -1.34721734543080
H           2.95815819017980    1.20970930172318   -1.46963843088699
O          -1.50449209030140    0.05896351327871    1.70293565126461
H          -1.88924261359505    0.49070606589062    0.91172576579779
H          -1.36009702092643   -0.86293821562653    1.43945078737701
H          -0.12510337191968    0.75108690515973    1.95972491337334
N           1.95210747569402   -0.88150404570430    0.73267097861837
H           2.11252955624943   -0.42388999139342   -0.22188319068933
H           1.18063318922799   -1.57038776627444    0.64303910773361
H           2.79557022692052   -1.32229061086154    1.08276465592281
H           1.61160337347362   -0.11574359083164    1.36824151568627
