    26
        -50.46322819  Gyration_radius:  2.57428338457 Dipole_moment: 5.243
 S          -0.77783637919257    0.99953276367572    1.93778220727185
O           0.57095200831080    1.10229060508945    2.41721283483265
O          -1.02429758464316   -0.25860521924040    1.21749640819306
O          -1.22352235990609    2.12391549997657    1.12350157700558
O          -1.74131000798852    0.98201923674631    3.19346624086152
H          -2.55424645972614    1.28010513294191    2.79980478070727
H          -0.49283202603805    2.38440285507459   -0.26425591822900
O           0.00580060470574    2.46721752643507   -1.12203303433988
H          -0.03036665448905    3.39602322649311   -1.35453867059383
O           2.16639162896525   -1.05214529445811   -0.67550386789475
H           2.99438855749015   -1.22806197916331   -1.12315398256192
O          -1.42354020171425   -2.60474660035440   -1.79695277291768
H          -2.29725332686425   -2.95003604443421   -1.61139979390534
H          -0.87708202294228   -2.80614530185189   -0.99879946712693
O           0.05366215843838   -2.67058833941508    0.44148115552678
H           0.93542538939061   -2.34665037629286    0.21541114929802
H          -0.36191897540269   -1.94840632442139    0.94075659942200
O           2.15585434716200    1.35079187242287    0.31190304909429
H           2.27731306289696   -0.17465059036659   -0.20996915623080
H           1.55949406005687    1.85956634363815   -0.25974884852291
H           1.69903850393672    1.29243526636181    1.17751975659738
N          -0.33176218265127   -0.22544000628246   -1.30677646017279
H          -0.90357060279146   -0.94358251771960   -1.79191993145341
H          -0.66402574917923   -0.18585176554350   -0.29667628840317
H           0.65258545452843   -0.56545296812270   -1.26968967930111
H          -0.36734121239090    0.72206298883221   -1.69491788714073
