    26
        -50.46086460  Gyration_radius:  2.50618681952 Dipole_moment: 4.210
 S           0.66843100174666   -1.66315533078826    1.03478342860584
O           0.75816335643523   -0.79224870377155    2.16948934576206
O           1.45678943134947   -1.22455465983705   -0.11841533917326
O          -0.71030596521685   -1.92311931196995    0.61405441483630
O           1.27171497231959   -3.06124759882124    1.45620524797174
H           1.26581142764731   -3.52383992237037    0.62567610353924
H          -1.78610625303247   -1.47748186220908   -0.72226421630341
O           0.59224425940340    2.55740811319907   -0.58527565665226
H           0.25537702978730    3.44964040388023   -0.67123658155044
O          -2.25941780679189   -0.86128564298186   -1.31475541752347
H          -2.78963901599470   -0.32469868718907   -0.71484379270547
O          -2.34664157441947   -0.01419921869517    1.45529088293320
H          -2.67051833339634   -0.18727853261936    2.34056822690536
H          -1.72556941328644   -0.74860638494627    1.24962798822820
O           2.85162540858943    0.86161190029765   -1.49212328390912
H           2.70900153330478    0.10287317097686   -0.91396903362465
H           2.46110707296215    1.61635284019222   -1.03993064633335
O          -0.19533468392124    1.65326664283163    1.71415742027838
H           0.34989508171374    2.25485275613299    0.33679306556492
H          -1.09598148174040    1.29678580271702    1.61059145000662
H           0.32537354418018    0.87450147213399    1.99100334157079
N           0.10699342270698    0.23387851168871   -1.83023187938168
H           0.51384932855615    0.17128004325416   -2.75872844802467
H           0.66615496927198   -0.38913187995182   -1.17381731248706
H           0.22025649603570    1.21015075461028   -1.46667195006805
H          -0.89327377821606   -0.09175466575966   -1.79597734847428
