    26
        -50.45449956  Gyration_radius:  2.432717914 Dipole_moment: 5.469
 S          -1.45881028273850    1.39697165049050    0.15961541741175
O          -1.00354666928496    0.87487060564233   -1.22262961581766
O          -1.70544121941038    2.79596549591146    0.11980189429391
O          -0.48998377326127    0.97292781232484    1.14818283763112
O          -2.76076410708718    0.61121543430856    0.37227213492992
H          -2.48318725470042   -0.35259840753088    0.46826807608703
H           0.66393897285639    2.28987572734397    1.04346466272369
O           2.05422132074518   -1.15949718067048   -0.67074149497549
H           2.89996118108124   -1.60776207813808   -0.70139432623780
O           1.15239652377696    2.99130410374818    0.57792950111483
H           0.48054310815913    3.64222191635581    0.35323213899077
O          -0.43667915838959   -1.80591427168495   -1.65883728346263
H           0.50026424206341   -1.70169461628757   -1.41224402607277
H          -0.72464463777729   -0.92166140378182   -1.92129661855646
O          -1.99426566371307   -1.84997776068924    0.45113146638569
H          -2.75093957278335   -2.39535791600735    0.22466851261573
H          -1.36904089178020   -1.90865599687287   -0.32528950131337
O           1.41873245350273    1.35321873453815   -1.49166830245421
H           1.54799591463907    2.01182420184972   -0.76833482469406
H           1.79567317264582    0.50081380480894   -1.19029999948050
H           0.01334421484002    1.12070306890852   -1.40128351639233
N           0.91811152424693   -1.42763134418885    1.68161130330700
H           0.39943748691641   -0.54977031275824    1.63669823955196
H           1.41827117744958   -1.44333048666097    2.56145839486417
H           0.22502494935251   -2.16616493813527    1.70248898252514
H           1.68938699863757   -1.27189584282113    0.26319593700671
