    26
        -50.45846927  Gyration_radius:  2.52012278518 Dipole_moment: 6.118
 S          -1.58628070277927   -0.70388052388324   -0.37869040373097
O          -1.65641425925182   -0.80752501323988    1.05233419755935
O          -0.24924923983376   -1.12091825040572   -0.88183643782065
O          -1.88002910712414    0.62995716587866   -0.87944322448006
O          -2.61500300964195   -1.69901888911665   -0.99207892417671
H          -2.39265003392578   -1.68932144252037   -1.94235758813816
H          -1.09196917922767    1.86485661749887   -0.36059644890601
O           1.87465123228874    0.29603266974522    2.27973785238340
H           2.42409042263616    0.73741989130817    2.92817834227988
O          -0.47838276030241    2.59209056907158   -0.04369386153464
H          -0.80588098006336    3.39951232441462   -0.44273450716244
O           2.10895200490070   -1.97016706103646    0.40879956697325
H           1.99736131643566   -1.64283024189342    1.30641711296173
H           1.22725909775500   -1.97620215919038    0.01550398528091
O          -1.21894059294755   -1.69769838985928   -3.25166025241358
H          -0.95600945983302   -2.57916512537766   -3.52612694244976
H          -0.63910504681933   -1.45395377028818   -2.50254508223974
O          -0.56640139588464    1.17683574441272    2.42893273950740
H          -1.06689593979264    0.41854042401838    2.05889318233844
H           0.93302536971374    0.57784546261951    2.46464505408821
H          -0.63312132950705    1.87339200492348    1.76202849250222
N           1.47640182714482    0.77310533121646   -0.31466839441136
H           1.80740455550410    0.55743131311872    0.66323245346466
H           0.81890745020820   -0.01889086284090   -0.59360095424366
H           0.90921221452348    1.64670489608724   -0.29975098525993
H           2.25906754583687    0.81584730533640   -0.95891898235855
