    26
        -50.46882329  Gyration_radius:  2.54696918566 Dipole_moment: 5.060
 S          -1.19812460492043    0.27442706772772   -0.70629494972558
O          -1.56121688407740   -1.13704667757785   -0.69514247112469
O           0.11043640337442    0.47433542344031   -1.32460496384869
O          -1.21514431678849    0.83662200481786    0.64815976721039
O          -2.25987399744348    1.01258842427409   -1.54868647264867
H          -2.20985314031877    1.95692625637020   -1.21590770088523
H          -0.24708902027403    0.18724097066656    1.70674209442351
O           1.96779759008246   -2.93171084323750   -0.36257827730094
H           1.82936776583827   -2.98483389535452   -1.31012802279722
O           0.35928996003395   -0.29658487461812    2.33553446972171
H           0.25542729960454    0.13205706627245    3.18628130826146
O          -1.78948484071865    3.24888628382700   -0.39061486972123
H          -0.90937353524444    3.44539385709551   -0.77550609305413
H          -1.60912186083378    2.67304802434799    0.36787029948496
O           0.64265571376240    3.05921419700843   -1.49447878103354
H           0.85513425505510    3.25198715654984   -2.40890413573005
H           0.53956187839023    2.08368973978321   -1.43863964706419
O           2.16342565203398   -0.37828185839838    0.14469103697521
H           1.81510043894028   -0.22741192174330    1.03288635076991
H           2.22424313077318   -1.98470775318520   -0.18345150664676
H           1.48456763010220   -0.01835939764576   -0.46402094083778
N          -0.25627479866089   -2.56390212880761    1.00089160019327
H          -0.86244604929881   -2.02598368154671    0.28908484352130
H           0.62320630151291   -2.86695872862561    0.48522879443900
H           0.00772432765512   -1.87002948162626    1.72698173787652
H          -0.75993528758030   -3.35060522630785    1.39460651590672
