    26
        -50.47250223  Gyration_radius:  2.48725274386 Dipole_moment: 2.872
 S          -2.13059545464955    0.40998744986475    0.66083041671243
O          -2.45018713504731    0.09277738285301   -0.72559314251782
O          -0.92381027389464    1.20716956115636    0.76985300310972
O          -2.12086780994535   -0.77183662225882    1.50168487807648
O          -3.31030090941445    1.32102600516382    1.19739224435085
H          -4.01739892566413    0.68787034504582    1.25704534024082
H          -0.85570726114024   -1.70367396764393    1.23545620285398
O           0.83668124042779    2.22678226767356   -1.00460292877269
H           0.18935690673934    2.12319668137528   -0.28280871596875
O          -0.03004426711175   -2.23912520864969    1.10219802620249
H          -0.24991537084756   -3.13325227721295    1.36780980267839
O           2.71194361572670    0.48648536932929    0.02370046838650
H           3.61522986990771    0.62900500274246    0.30690940582687
H           2.16929059111511    0.36883020551023    0.85682552782432
O           1.32332183850138   -1.56689821772396   -1.17549843599400
H           1.97264025702307   -0.93035721247916   -0.82530037442831
H           0.85034842081438   -1.90834922797745   -0.39315406199268
O           1.13588811305775    0.10053601119715    2.06149782274251
H           0.88307981642355   -0.83090337231610    1.98125382050611
H           1.63755079640876    1.77039602002493   -0.68795349124283
H           0.35234111866621    0.59352382682972    1.74497470874263
N          -0.32250658293459    0.20958854734176   -2.22740430854560
H           0.15402160158056    1.10810993699072   -1.91301794687696
H           0.30528757687631   -0.59166773433413   -1.92296723642202
H          -1.23127003125390    0.14531582944146   -1.68317531888964
H          -0.49437777134626    0.19546340806496   -3.22595571660886
