    26
        -50.45879351  Gyration_radius:  2.49508916559 Dipole_moment: 6.348
 S          -0.79192089733085   -1.40699444749674   -0.20892728544196
O           0.47058298086277   -1.17389492843299   -0.95332920190537
O          -1.70788237436908   -0.31565961334440   -0.41113647323671
O          -0.49086224791823   -1.65298358673430    1.19086959800146
O          -1.42989988365748   -2.69338354203904   -0.81272982746291
H          -0.69557087580921   -3.33806576405171   -0.80807739955308
H           0.16513774413319   -0.51014551746967    2.02041388216116
O           0.61479178637940    0.26642508039712    2.46636697421644
H           0.99859276987006   -0.08508102544741    3.27116589725165
O          -0.35960986567742    3.04987817430992   -0.16003964714606
H          -0.27422105413323    3.94223616233278    0.17618057957435
O           0.99085064274694   -3.74888145349797   -1.04997726627998
H           1.19469285444936   -4.01395340930118   -1.94986604375913
H           1.06840727681875   -2.77461009445159   -1.02220183766934
O          -0.03952101409595    1.12222985523814   -2.47623974300408
H          -0.08489763468581    0.21499068439240   -2.15174259350011
H          -0.81331929083131    1.56171984116012   -2.11502696758474
O          -1.76135307446981    1.56160681130243    1.47101462938280
H          -1.11055459507484    1.19805972518659    2.08435222251088
H          -1.00438207475529    2.57832574068466    0.43404716500696
H          -1.92856978406323    0.84987124564500    0.81915069229826
N           1.42243203200203    1.08401287579663    0.03821029976591
H           1.08681791182391    0.21458246343609   -0.46659324259403
H           0.78176247564637    1.88808283839586   -0.21629474250495
H           1.31932528565189    0.88885780112702    1.05799855284444
H           2.37917089649222    1.29277406286501   -0.22758824137454
