    26
        -50.46436543  Gyration_radius:  2.43311685862 Dipole_moment: 5.458
 S          -0.58247120250028   -0.63593686145297   -1.39792281249004
O           0.21756222416263    0.51071888592977   -1.81704989072029
O          -1.78004716145392   -0.26156622016399   -0.68366389029851
O           0.24121226944018   -1.56458610547412   -0.60758008310968
O          -1.03475344250878   -1.40003691803731   -2.68367894954476
H          -0.18902973521235   -1.64818897418139   -3.10599596530315
H          -0.31181519742451   -1.83813918877015    0.92047223423473
O          -0.70229174639143   -1.92990964095755    1.82375674107208
H          -1.37160192190139   -2.61111756865312    1.73908472262240
O           0.96244089288885    1.77960840661930    2.12273104325582
H           1.45176902183103    1.54005269361032    2.91101608530703
O           1.58520500302830   -1.65422865190509   -2.95215103500624
H           1.71286584538080   -0.69964410605482   -2.97620824180236
H           1.43343767523019   -1.87084297369752   -2.01897357077784
O          -0.75762394465397    2.50469800728280   -0.19832100515382
H          -0.51541202052333    1.88948574305870   -0.90733418378514
H           0.05029048759191    2.95467441979917    0.05849668892467
O           2.01267684741821    0.41321843580824    0.12282515144835
H           1.46397851083091    0.62466202692339   -0.66008764215611
H           1.42740542523095    1.34101871018564    1.36536056024366
H           1.81797585325364   -0.51818215616278    0.28021907310710
N          -1.44072302290199    0.62890386767752    1.76067117689517
H          -2.23792908980394    1.02727676774572    2.24412516668932
H          -1.23011926117203   -0.35930795398715    2.04330893075406
H          -1.64116367038734    0.55364769633908    0.72618826827724
H          -0.58183863945037    1.22372166852383    1.89071143730753
