    26
        -50.46245839  Gyration_radius:  2.53059519864 Dipole_moment: 4.458
 S          -0.34422084421009    1.36360209256271    1.75216533715664
O          -0.36591679097941    1.85515878043710    0.39392066259392
O           0.16731668507541   -0.01387335753572    1.80377539068870
O          -1.60827959595468    1.48917349470411    2.44340799169916
O           0.70781547579843    2.24653331113029    2.54272995107386
H           0.53540178316647    2.05354028426800    3.45981897152834
H          -2.67734836367901    1.13923353592128    1.20591276988150
O          -3.01753564329824    0.93405582242575    0.30394851872435
H          -2.69677704330877    1.66730850411913   -0.23006256942791
O           0.15072017409385   -0.46333003497849   -2.44879962537365
H          -0.23113549186380   -0.00079815165082   -3.19507173319978
O           1.10801286996012   -2.71315926095834   -1.15098467669542
H           1.79295064649843   -3.24367427953486   -1.56044247281706
H           0.86565654816869   -2.02804186165104   -1.79359203702121
O           2.39462731039498   -0.82116875322651    0.50716062746816
H           2.02007784869350   -1.59891654268690    0.06312815345516
H           1.71836413559724   -0.54489095365234    1.14928695250917
O           1.67117771026889    1.13342046883018   -1.17575083114968
H           0.80298749656270    0.19488636330914   -2.01595593002644
H           0.99866155922614    1.55874038145150   -0.60611368773780
H           2.15081329497656    0.51038494284902   -0.58390221306746
N          -1.23862123025508   -0.96697418979644   -0.18452962100557
H          -2.07390444687546   -0.32384614971650   -0.07619751132465
H          -0.59304201181067   -0.70326696203247    0.61501786274216
H          -1.48552150273014   -1.95018480772935   -0.12413972298639
H          -0.75228057356275   -0.77391268689129   -1.09473054764340
