    26
        -50.45759471  Gyration_radius:  2.57496141637 Dipole_moment: 5.984
 S          -2.29749002458566   -1.10391935644720   -0.54224941105623
O          -1.84985951396245   -1.17330049633541    0.85209342809074
O          -1.86743280150261   -2.20099329787070   -1.35140386068726
O          -1.94540591883126    0.20049120197841   -1.10620559681963
O          -3.88695087807355   -1.13573292130185   -0.48419978687082
H          -4.11263441533310   -0.36406616913198    0.02768564168452
H          -0.66514594337131   -0.36154276275872   -1.88130606554447
O           1.69927356769351   -0.10716031830916    2.10317430244067
H           1.94635178204005   -0.62838650931486    2.86743360613283
O           0.25469214332132   -0.56948992143141   -2.19054714428832
H           0.14178458097888   -1.33706994587617   -2.75530085849979
O          -0.72308589986065    1.10185560674244    1.47543901948456
H           0.04555900318770    0.78114136365596    1.97626275793452
H          -1.24639168224175    0.29078060424221    1.25909362225798
O           2.99714403618286    1.49066364033447    0.38863333463332
H           3.58007079712406    0.89505032364052   -0.08601974808936
H           2.63717091807810    0.97730583553808    1.14384715171204
O           0.70939636681887   -1.69628345679041    0.30110186238004
H           1.36445183725140   -0.75698607947814    1.41928669489808
H          -0.23622586083024   -1.72649218888186    0.54585568369441
H           0.71295619201592   -1.40805529112194   -0.62803769340553
N           0.55616377241259    1.78385734099504   -0.68600183005088
H           1.54735667991842    1.81736561801593   -0.34170105761301
H           0.46407531763444    1.03774201752929   -1.38638573926263
H          -0.08109036217157    1.52541170923341    0.16065461040441
H           0.25526629609550    2.66781347310116   -1.08120291357395
