    26
        -50.46067269  Gyration_radius:  2.43622086526 Dipole_moment: 5.394
 S           1.98620874131393   -0.16017561360958   -0.15326055567680
O           1.53882650388361   -1.33777291499000    0.56450075174174
O           1.83937334341073    1.05344547108171    0.63258175012450
O           1.37785773370295   -0.02347324645279   -1.46647854411250
O           3.53345505883401   -0.34956037880647   -0.41447512037631
H           3.85518427037643   -0.50863232464452    0.46652483333813
H           0.32764217710311    1.21697463433237   -1.68617119319640
O          -0.33203678641384    1.95084402134398   -1.74965225155597
H           0.14348545400094    2.68881406120419   -2.13433056375772
O          -2.36554529126294   -0.38198688673003    1.08481685347526
H          -3.16810405677544   -0.34430254847522    0.56321272042916
O           0.15037818167556   -0.32351569896557    2.68189163783927
H          -0.60567286988213   -0.91075730468893    2.75361973339908
H           0.74123730544726   -0.72744994792576    2.02681449593583
O          -0.77552741354958   -1.23820472062355   -2.53407341930057
H          -1.25852074263419   -0.44513213584584   -2.77636673052616
H           0.11321502760934   -0.93142395201818   -2.27828265033731
O          -0.93559518826585   -2.24728740879239   -0.00637983823104
H          -1.83778815155763   -1.15279157944842    0.71982922952169
H          -0.99199765224109   -2.08179224788396   -0.96597787903991
H          -0.00608066046906   -2.06497847831243    0.22574333116165
N          -0.68385104033480    1.68125708114084    0.89894164962950
H          -1.32733363335522    0.85983643622575    1.07822741513253
H           0.32273453994384    1.37024498532465    1.02310599075866
H          -0.75176896020020    1.97328686505839   -0.10053932569942
H          -0.88977590036191    2.43453384252953    1.54617766933685
