    26
        -50.47200570  Gyration_radius:  2.49873615628 Dipole_moment: 3.916
 S          -1.08863301514790    1.76902885512048    0.71460446223188
O           0.10342210613281    1.24763762909037    1.34705221310863
O          -2.08328529450169    0.72850734981546    0.46126491771435
O          -0.82674212377117    2.56035961819849   -0.47227120476157
O          -1.74614682210314    2.75614510507464    1.76523563439969
H          -2.38442185164057    3.21782844638702    1.23202564822928
H           0.04567609255903    1.79711664125113   -1.56545291120378
O           0.55435962508982    1.23674829417139   -2.21027552952266
H           0.62979908587016    1.75944742759855   -3.01031267838085
O           2.53327834904273   -1.93577624809189    0.04894469829719
H           3.08590484264507   -2.17638645465027   -0.69555308877278
O          -1.06973184232567   -0.94721420351179    2.21786740863810
H          -1.73670370418666   -0.47799154850674    1.67833190376530
H          -0.38999274893756   -0.25936728075107    2.31549871235433
O          -1.19560632977152   -0.75421917561310   -1.55147716309073
H          -1.66877400295215   -0.20003919792378   -0.89382154646355
H          -0.54186227322441   -0.15671301358075   -1.95657064747584
O           2.27590763936724    0.65908445709404   -0.11957531943047
H           1.60579923265214    0.93675959053093    0.53289393555990
H           2.51498500764055   -0.93839401652361    0.06375073740564
H           1.86855553934259    0.85262914983938   -0.97863610572028
N          -0.09216639033038   -2.36203520038454    0.21337066633261
H          -0.38530736084385   -3.33173068910869    0.17522512335956
H          -0.44364158247392   -1.89930113253328    1.10743649142268
H           0.95579582789913   -2.28240181394068    0.16674550782696
H          -0.52046800610509   -1.79972258902066   -0.58630184580164
