    26
        -50.47059090  Gyration_radius:  2.47582889123 Dipole_moment: 3.236
 S           1.35465588569545   -1.46522899793770    0.88561197023970
O           1.51594944335773   -2.28604790297423   -0.28860097879461
O           0.07388049141401   -1.66397912527497    1.55287273499174
O           1.63011385125157   -0.05206906538788    0.65428876281327
O           2.46848179191211   -1.93350992474315    1.91547649872880
H           2.43814959142350   -2.87861968893986    1.81302348135744
H           1.56038594107671    0.66512407656030   -0.77639462078483
O           1.47010345825099    1.11098802476015   -1.65720441009347
H           2.34446846080009    1.43185246051661   -1.88219167928260
O          -1.90935447571485   -1.20963042104789   -0.15878147236851
H          -1.28042363706990   -1.54945916377182    0.51138653464159
O          -0.07677424001925    0.80246335754183    2.46245230967034
H           0.74064544961313    0.86621941156706    1.93838496702195
H          -0.21275451009426   -0.16445380473158    2.47061579421148
O          -0.85385689381763    2.44117739285192   -1.58284397220987
H          -1.28121653114860    2.12386412821814   -2.38115242934331
H           0.05117621096735    2.06168664014145   -1.59897982548671
O          -0.09483689405444   -1.18171108035470   -2.10350759876704
H           0.50375558982558   -1.74195365803736   -1.57102522656580
H          -1.40123414875979   -1.24327210002420   -1.00174308927033
H           0.39471385404604   -0.35738248968361   -2.22402483703404
N          -1.90555550190045    1.26964870913490    0.60811413156650
H          -1.19964297678278    1.22399442885633    1.40215812772725
H          -1.52449910801327    1.83390478729929   -0.18608716980067
H          -2.01846507132518    0.24789223255344    0.26536827790545
H          -2.78786604094060    1.64850179293861    0.93278372894936
