    26
        -50.46651517  Gyration_radius:  2.52849453877 Dipole_moment: 2.408
 S           1.80582235049145   -0.78107543382022    1.09084885051480
O           1.84733842761838   -1.99175851988622    0.31392522647860
O           0.45770506500301   -0.54656984505440    1.63128575212469
O           2.30720123633578    0.39461033096474    0.40409138670427
O           2.75245819873333   -0.96686175869840    2.34532721007027
H           3.04986776569014   -0.07354659164354    2.48641810571375
H           1.53192861372604    0.69930022415483   -0.95070362959757
O          -3.00228179127698    0.45619086990787   -0.58098646401782
H          -3.41822675000733    0.49481209718395   -1.44321773954891
O           1.02948286180904    0.83423405299373   -1.79794286025453
H           1.61350722331478    1.33619926465658   -2.36923799865198
O          -0.17079645311271    2.01494665725306    1.90159887646095
H          -0.87500265127031    2.00295283000020    2.55231833042965
H           0.13613169635311    1.08811640562292    1.81409121846822
O           0.41717806399296   -1.82221044557932   -1.91219127848982
H           1.08637938216270   -2.06033610462994   -1.23716565811318
H           0.60596064822185   -0.88956079763690   -2.12290624520744
O          -1.07986906628900    2.20038986461167   -0.64596728764858
H          -0.36003534521711    1.76990004235894   -1.13931332650270
H          -2.32283909315126    1.19377213446687   -0.57517578716522
H          -0.74018511199231    2.29573691730994    0.26686037516362
N          -1.35643216227464   -1.54357649400875   -0.00233526664753
H          -0.75681222468887   -1.73375721126407   -0.86742086202532
H          -1.79544601169802   -2.39549552911149    0.32871244598163
H          -0.68598051699798   -1.17720741578118    0.72599681766632
H          -2.07705437545721   -0.79920552435571   -0.21691020189739
