    26
        -50.45880529  Gyration_radius:  2.60879618299 Dipole_moment: 5.789
 S          -1.54371055437144   -0.68795408154736   -0.03981490712801
O          -1.19789706488511    0.29696069650093   -1.03164141497840
O          -1.86412958279104   -0.06386762958305    1.24479627596757
O          -0.47835699765358   -1.69088232062238    0.14033097026666
O          -2.81032288010621   -1.45314632269002   -0.53617199759371
H          -2.86811609904380   -2.22899992925763    0.05648461742185
H           0.84259967152919   -1.02160818632992    0.66928614944437
O           1.63893319891197   -0.57852469466437    1.08327494102507
H           1.98187037127454   -1.21355595084979    1.71501053070002
O          -0.08845300214455    3.00857491356262   -0.79932514160993
H          -1.00023009606785    2.83590769163445   -1.05130520222298
O           3.07731568145202    0.01680559249630   -1.19154502171757
H           3.74651545015238    0.64990372287126   -0.92731173775129
H           2.60746905387816   -0.25887627303793   -0.38493106290713
O          -2.14372376688419   -3.53927015145092    0.96415631943255
H          -2.02785663693557   -4.33633341644280    0.44203522899659
H          -1.35296717304870   -2.98389208162233    0.80177311266190
O           0.93564842083758    1.24369382447275   -2.42060552179100
H           0.17274995369978    0.70987876896946   -2.14141455282490
H           0.43152962586498    2.46417536439794   -1.45611194463387
H           1.72682526112388    0.75784283742367   -2.12741845685643
N           0.05748909989914    1.63554640607364    1.41977701532891
H          -0.82051365840440    1.01110510478743    1.41189536836880
H           0.08979124230328    2.21606307627485    2.25107425099842
H           0.85218829941580    0.97560056525291    1.38636801862456
H           0.03535219199398    2.23485248337094    0.52133414278260
