    26
        -50.45568716  Gyration_radius:  2.56720580928 Dipole_moment: 1.977
 S           0.40749120977406    0.57781615283068    0.71485097318039
O           0.96231567812641   -0.15053242796232   -0.45411026249830
O          -0.50055318717495   -0.28226485657174    1.45068400643431
O           1.60705903130744    0.94850318903370    1.60964126073495
O          -0.21921576586111    1.81638896972065    0.29187420278334
O          -2.30027920039155   -0.31144915091840   -2.29488049974556
H          -2.41891438177688   -1.26260956205793   -2.27427846895581
O           0.05787646955923    2.92455086818855   -2.02772061739303
H          -0.08979345576212    2.63548156747069   -1.08979461475963
H           0.88343034776941    3.41241902156718   -2.03321285056144
O          -2.65852239325470    0.50242805318011    0.15729235019199
H          -1.95457286431179    0.10230376719898    0.71132224310925
H          -2.46450890123278    1.44439121842016    0.18634695288683
H          -2.51591084951028    0.01766800771177   -1.37593719456361
O           0.08003758362060    0.46787027222314   -2.66580302472822
H          -0.90280292104144    0.14948512450141   -2.60926064691247
H           0.06020120025686    1.48995938863520   -2.58475617055713
H           0.51012952376511    0.15990397163115   -1.73042337054329
O           2.73347215788920   -1.31266374122228    1.27688122942377
H           2.14520643629835   -1.89738669953881    1.82207787506150
H           2.33396985023139   -1.28477002159023    0.39737735113425
H           2.17145635036545    0.11327551148649    1.60680254705572
N           0.77208562572649   -2.54321902799335    2.62326035721285
H           0.79081256978094   -2.49381890621044    3.63406691412423
H           0.35061328626896   -3.42703334486194    2.36674019246125
H           0.15891657959837   -1.79669733490896    2.29095926542329
