    26
        -50.45568726  Gyration_radius:  2.56725156657 Dipole_moment: 1.977
 S           0.94824664011282    0.07342393847792    0.32865933591830
O           0.20584931548578   -0.30751781514210    1.51591901682789
O           2.38037001733300   -0.49155891418519    0.41142158877186
O           0.32509238381102   -0.53082763893681   -0.87611452197525
O           1.05609650436231    1.51268941019735    0.17789853359562
O          -2.79273978421109    1.54296613046533   -0.68763827251611
H          -3.41385080036166    0.83429764203319   -0.51096514155336
O           0.76514730019209    2.81822031439767   -2.03476209908988
H           0.95185249858832    2.43767438776832   -1.13728091135253
H           1.58754178525260    2.76860904999366   -2.52547808782125
O          -1.37357068759838    1.80194145112420    1.48562316498858
H          -0.87858075687220    0.96580522080924    1.62138570420170
H          -0.68398701629421    2.45011668251939    1.31213165182935
H          -2.30031612559979    1.70343261670677    0.16734052010543
O          -0.95656470282983    0.97789700304676   -2.33686725290109
H          -1.75932186042580    1.23726142375197   -1.73775791984335
H          -0.33559398709106    1.79373533912995   -2.36091334733697
H          -0.40429793173370    0.27162468261701   -1.74449694633695
O           1.64022825567662   -2.84241893751364   -0.23524731051974
H           1.17634375143567   -3.12805562152043    0.59443380305034
H           0.97193234483335   -2.39154333403214   -0.76812890176971
H           2.26193301031496   -1.46903055555943    0.19540977997694
N           0.28557944692155   -3.10110059469599    2.06100445327871
H           0.15916151020073   -2.08784588973512    2.02935569102490
H           0.81239731542415   -3.31562825598430    2.89824080256510
H          -0.62894841692135   -3.52416771574540    2.15682667689035
