    26
        -50.46668519  Gyration_radius:  2.39502332394 Dipole_moment: 4.521
 S           0.94251082627694    0.57670988265686   -1.19256486772385
O           1.01511397952241   -0.45254763240349   -2.18968879655559
O           1.64522165844500    0.23391810780830    0.05130259772685
O          -0.42585615026045    0.99031451648664   -0.88874097801121
O           1.67435557713054    1.85100444461128   -1.76198638242716
H           1.64891743752400    2.49557198024742   -1.04258863371777
H          -0.87937982855322    1.59907697352315    0.63673334405390
O          -0.85395748367927    1.76752952335606    1.60387141794674
H          -0.08870423211575    2.34649850379903    1.71308362609639
O          -2.24233034019625   -1.90287691793970    0.39102435687629
H          -3.05746758704455   -1.44503237666197    0.60490760117926
O           0.64225549573192   -2.46046055289770   -0.38785366217621
H           0.93124421091310   -1.83702489614137   -1.07226176094565
H          -0.00492537457598   -3.03908576402064   -0.79648867100573
O           1.74529978746589    2.66725728209647    0.91388874016051
H           2.61389213156908    2.92014916391432    1.23203754652278
H           1.78764750319476    1.70069989056882    0.71902871775364
O          -1.73138372931074   -0.99450232369046   -2.04615065650611
H          -0.99465882117668   -1.29756281720028   -2.58605895736377
H          -2.05877175583694   -1.68202642636726   -0.55547612277187
H          -1.40750499262555   -0.14521723347383   -1.68485110537351
N          -0.18108567713392   -0.79054478797319    1.69636799076695
H          -0.51696372028062    0.19168911964582    1.89816592270057
H           0.11846545378607   -1.29517482646296    2.52341377675975
H          -0.94207655191820   -1.32474044968031    1.19092863390000
H           0.62014216315302   -0.67362241380016    1.02995633213413
