    26
        -50.46592468  Gyration_radius:  2.50513736209 Dipole_moment: 2.926
 S           1.66073199836561   -0.83370215226022    0.57333939106506
O           0.96755957943043   -1.90017939818650   -0.11728044728739
O           1.16065879064723   -0.57032061897088    1.90801769694339
O           1.73277212556781    0.37825956239373   -0.23713754354369
O           3.15329195423918   -1.33023855253261    0.75112072582341
H           3.51339061166185   -0.67214216400927    1.33618039645148
H           0.54057051110065    1.54574436259054    0.14142811909763
O          -2.91808706922951   -1.21080955403043   -0.84746564993365
H          -3.58292232692067   -0.53078483819089   -0.96758682645758
O          -0.25928874962131    2.06876644972076    0.34578698444982
H          -0.09590507712306    2.37563610354628    1.25342848149508
O           0.38429654133271    1.14056718940476   -2.41590773124119
H           1.08501976322079    0.91310301740806   -1.77193045900962
H          -0.13504401354111    1.81759688634855   -1.96849012045583
O           0.55397498771381    1.85058094851420    2.94906153613744
H          -0.08135049011509    1.67051253418892    3.64414818240960
H           0.85051183310029    0.97551226254248    2.63186125086349
O          -1.41373292333068   -0.24868984015353    1.07442967656546
H          -1.17661894086201    0.66152485921178    0.79194097131101
H          -2.42873414219301   -0.96723043752604   -0.02141270573372
H          -0.59389444635156   -0.61515738270497    1.43598153581620
N          -0.59250742859160   -1.31192719797522   -2.12433852266627
H          -0.49825071161673   -1.95011184763936   -2.90662748364251
H           0.04747369615571   -1.61262763683422   -1.32832100387253
H          -0.29750415151649   -0.33161914948698   -2.38452841491466
H          -1.57641190150981   -1.31226340537081   -1.74569800969598
