    26
        -50.47039613  Gyration_radius:  2.41545276431 Dipole_moment: 4.721
 S           1.17661844576973    1.34845920460875    0.96188562720773
O           0.78068180182945    2.02257098479671   -0.26425487635334
O           1.95122517419441    0.15122146473743    0.75146014868436
O           0.01555583819800    1.12716275255945    1.82837523049350
O           2.11711732051584    2.35494024919525    1.74107150305857
H           1.59962098950233    3.15261567810008    1.75608305657159
H          -1.32826214848997    1.56225110766676    0.97337446468423
O          -1.89494288502677    1.83930823063657    0.21678965793424
H          -1.28738370568645    2.37664277607042   -0.30770768044978
O          -0.80454685074198   -2.41681893598912    0.11835195412866
H          -1.18592592925953   -3.26278463154065    0.35581331276724
O           1.58487300725863   -1.60115753793993   -1.25894017347286
H           1.90051474565861   -1.01877875497194   -0.54308300785801
H           0.84555606058347   -2.09661728238873   -0.88184417015030
O           0.40490697631595    0.47283922553968   -2.40284884218515
H           0.97607909672597   -0.30625624481829   -2.20144008828704
H           0.64832792221157    1.14079606643216   -1.72687570707920
O           0.36300731139111   -1.44247664112927    2.22628055688937
H           1.28065222051271   -1.35792300355953    1.93570432447799
H           0.07265295919622   -0.50787301503489    2.26402569370400
H          -0.38928470344928   -2.05714848572528    0.95765690502911
N          -1.79561375530715   -0.31418811231019   -1.30506647054402
H          -1.53411940254267   -1.15505594635261   -0.75316644784901
H          -2.58889926197638   -0.50509509645044   -1.90632412969750
H          -1.99012982714428    0.50286549293217   -0.65387664266719
H          -0.91828138922971   -0.00949955546875   -1.88144421869744
