    26
        -50.47217128  Gyration_radius:  2.47566012595 Dipole_moment: 1.746
 S          -0.71637633165900    0.98039345395674   -0.09847219623337
O           0.18804153768841    1.80095490549924    0.69470348680587
O          -1.17825025377894   -0.19198018027341    0.62108024267424
O          -0.09371323238994    0.59976072652112   -1.37010067265403
O          -1.98096305208953    1.82458182240831   -0.43871493604517
H          -1.60911445137979    2.69578160228789   -0.69309230590072
H          -0.82496208020754   -1.85521963978708    0.24381488920067
O           2.03916309155351    0.13725868784639    1.70234140315623
H           1.48099652553110    0.89473415165610    1.43620139639985
O          -0.40113049783230   -2.63655149170531   -0.16438533041569
H          -0.74907574246491   -2.61841797030609   -1.07488636860754
O          -1.26695613204440   -1.54093996173399   -2.48441743898595
H          -2.18659657372563   -1.34074068975959   -2.66347163983144
H          -0.86359588923546   -0.70472255403732   -2.17474894960017
O          -0.45293960229834    3.95007071838016   -0.64838358736198
H           0.04885821558951    3.29711879124046   -0.11867878398463
H          -0.63503384239974    4.69218177108181   -0.06709088061400
O          -0.00219102404934   -1.20191971859568    2.82576188171119
H          -0.55699484269156   -0.74571788037295    2.16562664712541
H          -0.12426837901596   -2.14064127780164    2.66676253656983
H           1.47508528499227   -0.36382151976384    2.32743966893167
N           1.71718165345798   -1.12425170972432   -0.55185766945253
H           2.00490023081643   -0.68594551642081    0.38797110729878
H           1.02703605090249   -1.91487365398894   -0.37590553409424
H           1.14801867196543   -0.38757321355860   -1.04095038529483
H           2.51288066476278   -1.41951965301476   -1.10654658081058
