    26
        -50.46306794  Gyration_radius:  2.47085633386 Dipole_moment: 3.586
 S          -0.13199755375958    1.35083958912233    0.65535327388731
O          -1.45856412714635    0.91831561767230    0.27857458821701
O           0.59087973721068    1.91770102055878   -0.47902899185674
O           0.64216633975762    0.24657436362851    1.24579484506788
O          -0.27916999760817    2.44867700473069    1.74445512152606
H           0.63898970992783    2.56980672724097    2.06080087709802
H           1.04825540294335   -0.84387438711450    0.02373153103155
O          -2.33537571222786    0.03972861764240   -2.18437275178862
H          -2.38970779035914    0.68073848339260   -1.45831279598692
O           1.11567817665694   -1.54793493678343   -0.65890806738987
H           1.36725856700467   -2.33515288879323   -0.16318927760892
O           0.25300248337469   -2.46420064451830    1.90764506284290
H          -0.66233302265792   -2.60923038939567    1.64865391941237
H           0.37281769784750   -1.50457651385476    1.92383165492537
O           2.21323673154614    1.97409853454477    2.45951876077022
H           2.37497157851968    1.73017407715438    3.37398027240581
H           1.88327100106327    1.17269868366332    2.00931604735944
O          -1.67945129527343   -1.72647144318018   -0.25582968926176
H          -0.75017941766203   -1.90154967086016   -0.46902786738894
H          -1.68271757191791   -0.84459724017039    0.15916968972720
H          -2.37158585636278   -0.82007007031603   -1.71748884200847
N           0.26004432773882    0.30258258275807   -2.45541758892334
H           0.69276921708584   -0.56008091533772   -2.09514483782164
H           0.65168241797553    0.56972286472358   -3.35206448348792
H          -0.80569252310989    0.17913580600880   -2.49599876883423
H           0.44175148942553    1.05694511748271   -1.70604169192220
