    26
        -50.46206596  Gyration_radius:  2.64912293517 Dipole_moment: 5.659
 S           1.25177877032688    1.41592068032612   -0.11662071281483
O           0.98471125860013    0.92792879437501   -1.46120672238242
O           1.93959284133412    0.41747710127128    0.70249842520158
O           0.03796868162613    1.88647250149370    0.53330694470058
O           2.21627906701771    2.63536113951939   -0.27896496754401
H           2.51152428367801    2.79154723124724    0.63830335120738
H          -1.05218152051027    0.91956429902190    1.01835175708985
O          -0.09218071200319   -2.99341595212861   -1.03961061577873
H          -0.59250884522129   -3.76849581402527   -0.78204138137070
O          -1.75062223781086    0.27674587988249    1.35051201943282
H          -2.11460647055288    0.69181924476080    2.13441006016991
O           2.96277929691315    2.25448438119913    2.24124312339747
H           3.89890216479646    2.08750204975275    2.37154149312146
H           2.58233910207508    1.42192967437187    1.88681603823409
O          -3.13219124664011   -0.23381474141757   -0.86002178660278
H          -3.70081348594715   -0.97042165160445   -0.62962676301783
H          -2.68963491039326    0.04459686484392   -0.02380858268154
O           0.28888493455988   -1.61756504612853    1.14708160995222
H           0.15482452398342   -2.53093686969843   -0.19142240718832
H           0.99852506005163   -0.95595948588777    1.01007688384615
H          -0.50366049745184   -1.09156774450889    1.33601662771895
N          -0.85321744420659   -0.72698090532537   -2.21495153846217
H          -0.55917637691741   -1.67509130814693   -1.86951288646311
H          -0.11064954091214   -0.02308378911957   -1.88811883176001
H          -0.90112800223129   -0.70557504376678   -3.22772862509969
H          -1.77553870397308   -0.47844150046294   -1.78652250278492
