    26
        -50.46313926  Gyration_radius:  2.55807261081 Dipole_moment: 3.452
 S          -1.57960400311927   -1.16117888692570    1.10252174826830
O          -1.25551407881453   -1.33495197605926   -0.32013935720712
O          -1.85443188029185    0.21971743662932    1.39542176598285
O          -0.57840107831790   -1.78534867536905    1.94872968374201
O          -2.91096095823972   -1.98175537843869    1.35272597291928
H          -2.55946983707414   -2.84634673464723    1.53675967641494
H           0.84687218086264   -1.11189917375413    1.71519780173276
O           0.14976979169054    2.91569764831047   -0.21609594642543
H           1.04731248952451    3.19639126344563   -0.39983173471919
O           1.70555681315747   -0.65110560893081    1.51903816766321
H           2.33157933310457   -0.98517453643840    2.16428973800180
O           1.25821832422518   -0.03246117020878   -2.97703260944361
H           1.34709416811494   -0.77893234402349   -2.32516510438011
H           2.11968275815484    0.38333116991009   -3.02766187559397
O           1.31783193527860   -1.75510294393420   -0.99582594951327
H           1.69421275117038   -1.36150066735295   -0.19163156991469
H           0.36218778376055   -1.80846480781881   -0.80753568946592
O           0.27808992070837    1.66806629289851    2.06066103250321
H           0.16202142041964    2.54872856435135    0.71433034452267
H          -0.58601963541067    1.21564537609583    1.99115708040343
H           0.93528281907336    0.96486257305989    1.92611172550920
N          -0.85809893035941    0.90638449897752   -1.63871904637166
H          -0.07836566289397    0.62022187796107   -2.28435351285877
H          -1.09250134839845    0.06055486800089   -1.04375311601839
H          -0.52138385524936    1.70916240066779   -1.03701297936933
H          -1.68096122088039    1.18545891356323   -2.16218623641877
