    26
        -50.44933982  Gyration_radius:  2.87420783832 Dipole_moment: 5.578
 S          -1.93791998655317   -2.40149010669676   -0.08509666138938
O          -0.98864925154161   -2.77772350912070   -1.13954528164887
O          -2.56659394444073   -1.12888486440870   -0.32983131534816
O          -1.31303395047984   -2.50045927089938    1.22832150549973
O          -3.07839212637369   -3.50410992410701   -0.12020573385598
H          -2.59369489450285   -4.30778693337895    0.04277678770073
H          -0.18327877130083   -1.44779430590712    1.46703400988619
O           1.59296173292683    1.96208940268989   -1.18205568200801
H           1.17167122898593    2.48593102649880   -1.86493825164411
O           0.59324470774467   -0.81844634510279    1.53354651407444
H           1.12494442089642   -1.13534454016449    2.26526173761083
O          -1.41697590350888    1.08257757910400   -1.17938037126556
H          -1.27429494054663    1.56346206925672   -0.35282131242191
H          -2.03100192518894    0.35168358245683   -0.94709169315691
O           2.67136657683609    2.86151354747292    1.28742384799058
H           2.63640324312178    2.55933976156097    0.36663193836389
H           3.16149644576114    3.68434452034280    1.29262631361095
O           0.06856141473767    1.83484841424291    1.08536809706818
H           0.14998399259794    0.91224910519747    1.38674085195768
H           0.78952253370809    2.31353945434165    1.51854546866030
H           0.93857740339516    1.90608303938646   -0.45382317042272
N           0.52703333901693   -0.69970218705590   -1.18369859630514
H           0.85334940484530   -0.68046284622096   -0.20174139585998
H           1.30467035544530   -0.60239158646506   -1.82854105987723
H          -0.02679825597552   -1.61030344081728   -1.30055244880511
H          -0.17315284960595    0.09723835779878   -1.30495408840994
