    26
        -50.46206595  Gyration_radius:  2.6492011905 Dipole_moment: 5.660
 S           0.57113653246826   -1.15074449409219   -1.39102531885156
O           0.39437862032665    0.13669881960448   -2.06346473237860
O          -0.68147918273166   -1.66324506728152   -0.85651230508430
O           1.59959704192640   -1.07341459712453   -0.36464905111494
O           1.04029802223354   -2.18240190107347   -2.46767018835861
H           1.75818108087292   -1.69998120695613   -2.92026774413413
H           1.55627422578334   -0.02063291800084    0.75269740072289
O           1.52938124573285    0.68563506332083    1.46809241082403
H           2.44884366314768    0.88873072849464    1.64862337465764
O          -2.67423201302340    1.57761132470459    0.64015797662834
H          -2.88056439515401    2.33369000414994    1.19081114633813
O           2.50488886206710   -0.24531233399740   -3.54299200537929
H           2.30386028174893   -0.03844390315684   -4.45842443852530
H           1.78487279004422    0.15236535145797   -3.00727894624048
O          -0.15090861661561   -0.37345194825863    3.23188907922249
H          -0.33932238601668    0.33617652398596    3.84827589429655
H           0.55583282191038   -0.03681266764031    2.63204081023392
O          -0.25207288873564    1.97186584737640   -0.25289809632632
H          -1.80069580763940    1.78378160782393    0.20571962050170
H           0.38623916387773    1.70264836689330    0.42576003658296
H          -0.07139558464759    1.37933887504286   -1.01206074020337
N          -1.93022648774094   -0.90040761364206    1.27506013879700
H          -2.34437787022528    0.04047967303780    1.05607928017515
H          -2.65474393926709   -1.58072019436255    1.47682503999752
H          -1.38652249471420   -1.22060216592850    0.40583953319423
H          -1.26724268566201   -0.80285116430360    2.07937181442947
