    26
        -50.47163203  Gyration_radius:  2.4113519605 Dipole_moment: 2.517
 S          -1.77359462473813   -0.81748175887783    0.04961045896331
O          -1.38870114705660   -1.39381855657565   -1.22834775004183
O          -1.27924948083640    0.54205359147696    0.19940446159816
O          -1.46388785811689   -1.66024568340154    1.18295453026638
O          -3.35607362086823   -0.67288661926429    0.01871016592258
H          -3.65560490958766   -1.57067633297090    0.12057593502953
H          -0.01474310121067   -2.49176122291962    0.61672544966404
O           0.22638454169861    2.72339972458269    0.75379801623041
H          -0.52641365371463    2.14865294510137    0.53331501730725
O           0.69124706333794   -2.64497109860179   -0.03629963775039
H           0.24280288965498   -2.47591567185615   -0.87427446108201
O          -0.41544746558062    0.63395839837022   -2.53801710497917
H          -1.08198395569593    1.30081486989358   -2.35764163440339
H          -0.76979176192911   -0.19001344563036   -2.12350617233750
O           2.26837560651072   -0.60639422912260    0.62025918068102
H           1.84469149372154   -1.44927236792672    0.33538328519106
H           1.72761806696064   -0.30656794036492    1.37950933886924
O           0.31625716101376    0.20924879671142    2.31602093802752
H           0.49897916375439    2.43504461319982    1.63127033971381
H          -0.33266890442817    0.28474522063908    1.58755996383293
H           0.01736278823670   -0.55274356594079    2.81796733581678
N           1.66520903686194    1.32153078579530   -1.01924939929971
H           0.90415040511613    1.00609509599787   -1.68208615660362
H           1.98418696541644    0.48610800806491   -0.41484390972637
H           2.44420881805494    1.72581979860596   -1.52646707481114
H           1.22668649342559    2.01527665500744   -0.36233112607075
