    26
        -50.47163228  Gyration_radius:  2.41147767555 Dipole_moment: 2.525
 S          -1.27967861652597    1.44157296325446    0.31871845090433
O          -1.37749701336152   -0.00849307753225    0.26470914921960
O          -0.75486115290497    1.99364364395977   -0.91947223540789
O          -0.59865741106962    1.91939105885669    1.50143546382257
O          -2.78283614624551    1.94489933873343    0.43369868199126
H          -2.68586025423133    2.86327193026341    0.66443100823415
H           1.03220721685255    2.17318821008122    0.88522540534828
O           1.71025877713931    2.12359801009233    0.18786329010850
H           1.19680240151542    2.27135959352099   -0.61592742354193
O          -0.87518665049491   -2.66486208065210    0.41803068903356
H          -1.33596652981376   -1.81216332589598    0.33965916661436
O           2.34432436594748   -0.44578261746951    0.45512751868030
H           1.76352027035451   -0.60930202521579    1.22641978825927
H           2.28977426714011    0.52722085482538    0.30924948832077
O          -0.75103035634140   -0.04358685043112   -2.53929227948093
H          -1.62399060699433   -0.40701364747814   -2.37418050894591
H          -0.72011710214158    0.78419522139908   -2.00060602597909
O           0.30934636567340   -0.64665288824069    2.23509128270807
H          -0.34611412217602   -0.35226767390701    1.57080331515346
H          -0.46890525420020   -2.63838127982835    1.29079366103646
H           0.37173092604180    0.09207848748687    2.84528243675918
N           0.92981519761859   -1.71638460311354   -1.32057265460357
H           0.33581282069976   -1.03149657247008   -1.86484452545701
H           1.45104653812227   -2.32131307709296   -1.94501890352126
H           1.59021889519531   -1.17379374266088   -0.66135312737013
H           0.27584320417262   -2.26292584048723   -0.70527109188942
