    26
        -50.47163743  Gyration_radius:  2.39712219257 Dipole_moment: 4.636
 S          -1.05267380271972    1.32554182929455    0.58274682904201
O          -0.56761233907214    1.41818135901854   -0.78789535783512
O          -0.38994534676125    0.24522058467117    1.29548241359048
O          -2.48565272396241    1.33160043303856    0.70491302392201
O          -0.56998617039914    2.67029015087160    1.31296774441712
H          -1.39632281843081    3.03702623674907    1.61027847595423
H          -3.01196641467685    0.23911894568782   -0.51736370056890
O          -3.04036384459607   -0.40735656026472   -1.24748793474915
H          -2.69699094931485    0.05351410553480   -2.01580613492676
O           1.23442527000533   -1.86254395286770    1.73392248881936
H           0.68658185707793   -1.06640871264363    1.85435857516056
O           0.40999838235175   -0.82852681983685   -1.93635381156770
H          -0.15984749941820   -1.43933676946279   -1.41092180017555
H           0.04540293306830    0.05482354828776   -1.73677232457827
O           1.84597514318076    1.88394217410654    0.15650131637263
H           0.98247899643101    1.81689676175988   -0.30297958921047
H           1.62454289693561    2.21455254722091    1.02996105385787
O          -1.14337834564727   -1.94829042531574   -0.09598429783151
H          -1.99013850075220   -1.71544545184184   -0.51926912887906
H           0.62669580321297   -2.52333651775242    1.38465492422029
H          -0.96538354522079   -1.19574925726747    0.49711263942407
N           2.44026973597752   -0.67341781005729   -0.31994565487422
H           3.37023086386174   -0.93371876035150   -0.62679266681312
H           2.11930680778107   -1.23499864783555    0.51319066948552
H           2.38512285274937    0.34429847713698   -0.06423735133370
H           1.69923075833840   -0.80587745788308   -1.09428044092018
