    26
        -50.46489363  Gyration_radius:  2.55383101326 Dipole_moment: 4.633
 S          -0.56382980628031   -0.59390336182343    0.10684100448066
O           0.81149863139271   -0.71478964284546    0.64221071489547
O          -0.83574870846177    0.79630049031828   -0.25944463899541
O          -0.72294040580836   -1.48470314385858   -1.02489825231442
O          -1.53867822482823   -1.02520847749461    1.20270200257954
O           1.31357386887852   -0.81669563283704    3.26534711147263
H           1.23634512853858   -1.74777809026489    3.48035440102764
H           1.24337436285043   -0.75446724970486    2.29097623951352
O          -1.13083445836774   -0.63818404856447   -3.48939406837298
H          -2.06992778836423   -0.54195997150901   -3.65304557289667
H          -1.05443431572450   -1.02806807917492   -2.58879029216895
O          -0.61068621510756    2.56191083533720    1.68604815588724
H          -0.63531183387097    1.95707266441163    0.91213761319863
H          -1.31357500231075    3.19907769676311    1.54801091723594
O           0.47992427061457    1.23963148417383   -2.49376720915355
H          -0.03140891168726    1.27933866331323   -1.65251094530467
H           1.40613338406615    0.13534844127231   -2.11314246776939
H          -0.11588799076581    0.75629680669865   -3.10495561497826
O          -1.07142745422694    0.42005277134840    3.21299243255665
H          -1.40317326232188   -0.43387287890811    2.04359135232531
H          -0.19194754634329    0.06760045255424    3.46588621477021
H          -0.89658801677806    1.30247996569549    2.81616786669218
N           1.86243217650511   -0.77574132171192   -1.69575841421804
H           1.55840039760199   -0.77520512261984   -0.66012233114658
H           2.87063866036177   -0.80771904081490   -1.80990668864230
H           1.40407905043712   -1.57681418975514   -2.12752954067349
