    26
        -50.45271695  Gyration_radius:  2.43548686493 Dipole_moment: 9.048
 S          -0.92597265245674    1.64666019653297    1.37579632882409
O          -2.09841799236499    0.94994477941398    0.84694412019600
O          -0.65147089996513    2.90780032561258    0.75796488367871
O           0.23279751963821    0.75244446778487    1.36782885405253
O          -1.24470689605192    1.92305923581514    2.91167623608238
H          -1.39781271042619    1.05786239526923    3.28266628798961
H           1.00743673324729    1.42152540688775    0.19046510461867
O          -0.52650375371135   -1.33875562971075   -2.04055191507209
H          -0.80558455987921   -1.56742457723095   -2.92776512037000
O           1.46287529954656    1.70542587826828   -0.65121439944608
H           1.57819417562637    2.65201832056114   -0.54950390934689
O           1.16545360346453   -2.09649921875684    1.37409170684841
H           1.05990086917138   -3.04989228408452    1.39455855638642
O          -1.34624923630012   -1.59262341773840    0.75431858499392
H          -1.66506790835109   -0.67234123811809    0.86961761017978
H          -1.27515661285961   -1.70877849914704   -0.20119359887131
H           0.24308827643373   -1.72949202018220    1.33757040350557
O          -1.14026967861206    1.12269999788665   -1.61612743330572
H          -1.64965826296803    1.14855624668180   -0.77928362868588
H          -0.31721343538253    1.59716295172324   -1.42247727105535
H          -0.82361766048616   -0.38385808500954   -1.89583850386345
N           1.85070525380575   -0.95405889782480   -0.88988947598380
H           2.69315529301912   -1.32828816648559   -1.31237191694239
H           1.68050326892403   -1.36551141329188    0.08371310522184
H           1.90213133004263    0.07965220024865   -0.80712137461263
H           0.99146064687008   -1.17728895515795   -1.45387323509680
