    26
        -50.46489666  Gyration_radius:  2.452576492 Dipole_moment: 3.804
 S          -1.63899583251258    0.58289536484567    0.58674109399647
O          -0.58263280623039    0.11206973019796    1.46622743243678
O          -1.14729214237067    0.91658663703898   -0.73748189852133
O          -2.52255786950305    1.55221793062520    1.16956515184258
O          -2.55829261509912   -0.73166955624061    0.33381748672980
H          -3.29254608656207   -0.58446786242124    0.92213695943200
H          -1.27201230487201    2.72573093912385    0.83079528882286
O          -0.49612613411859    3.30996416121361    0.82648288690366
H          -0.54280138383223    3.81671207469722    1.64081198807049
O          -0.84604749348156   -2.73716240510824   -0.82335004913079
H          -1.61151401473749   -2.25953191626196   -0.47845043929127
O           2.61743113052493   -0.34261737304838   -0.60692092290503
H           3.55019775590575   -0.17083018835340   -0.73835088735101
O           0.93198865948945   -2.06327608864361    1.00407696626947
H          -0.18898822695773   -2.73229820611481   -0.08378780912100
H           1.69652224061512   -1.65049846856140    0.58187567870310
H           0.38749068990041   -1.32232635104846    1.33164323545634
O           1.58781162895840    1.52321984046513    0.88543360888664
H           1.11891001851840    2.32553708822718    0.60520480472334
H           0.86967540743781    0.98087532035874    1.26579204544256
H           2.26918232077511    0.41700963291622   -0.05817461377881
N           0.35213334073100   -0.73887939744876   -2.01874385138252
H           0.34209474638325   -0.63445122613960   -3.02668067333441
H           1.31365678163163   -0.65097271495060   -1.63142353195258
H          -0.24835843249169    0.01336662609385   -1.54761690432826
H          -0.08892937808688   -1.65720357139700   -1.69962307664993
