    26
        -50.45539231  Gyration_radius:  2.44999569035 Dipole_moment: 7.278
 S           2.35085000549100   -0.14343862606283   -0.54200429845637
O           3.62887117736861   -0.18889993510213    0.09323005471596
O           1.67701259230350    1.16339684017754   -0.45690947820866
O           1.37736282311700   -1.05753811071766    0.37690048314689
O           2.26950915142851   -0.70548252703803   -1.87227229798481
H           0.76281676689144   -1.13093460042845   -2.04420294424356
H           1.95894222383509   -1.71731150204516    0.73846315588385
O          -2.09066384444549    1.45809771132041    0.09472600452944
H          -2.78188083984179    2.10401790788181   -0.05183865747982
O          -0.42925012841701   -1.18443889656873    2.55754856714205
H          -1.14534777740067   -1.33085661966159    3.17789242802608
O          -0.20351502835154   -1.34312614642118   -2.15645124336856
H          -0.25004260219496   -2.00753654808742   -2.84536674125344
O          -1.64743043004223   -1.37115692219205    0.22049914291795
H          -0.78864005794125   -1.42431131666120    1.66464175115181
H          -1.99209666042469   -0.46988596392675    0.15590450573741
H          -1.06670517795636   -1.47983552253677   -0.55224896314703
O          -0.52738754587326    1.35108293300448   -1.94594919057792
H          -1.52955263791942    1.45116750212164   -0.74700450337833
H           0.35590362515906    1.41006847922492   -1.52533032130856
H          -0.57875664633269    0.42776996516873   -2.24857691355751
N           0.13230284829390    1.25283922828329    1.60755791931339
H           0.40783472614668    1.96009223341662    2.27978861286703
H          -0.78884616670302    1.47087917393076    1.16760070710298
H           0.84355246574412    1.20504641877335    0.80116139367053
H           0.05515716806794    0.30029483414643    2.05224081673777
