    26
        -50.46489673  Gyration_radius:  2.45261692337 Dipole_moment: 3.795
 S           0.77563501682608    1.53914854895274    0.63398471791013
O          -0.44132222635589    1.50811226065114   -0.15936554141944
O           1.09982753207361    0.24204490923816    1.19883540626242
O           0.87205616184492    2.64146230518574    1.54812112254042
O           1.95261753458338    1.78689249177645   -0.45678346469008
H           2.12970931528704    2.71759531429650   -0.35982218816477
H          -0.17158556889596    1.71203221305626    2.59806165578465
O          -1.57696188560162   -2.13860101277502   -0.52467533491170
H          -2.25876956927392   -2.80624795799831   -0.44569988424247
O           1.80375547262189   -0.38863032158962   -2.33923954885709
H           2.07238417944931    0.40573241968348   -1.85976142290776
O          -0.90506809482078    1.28094080511710    3.06667736815048
H          -1.46618060031465    1.99061816172484    3.38854775893322
O          -0.80762253164908   -0.01831222466509   -2.34421999223019
H          -1.24890319070703   -0.77998640346690   -1.94642285263252
H          -0.76157705090763    0.65130965609891   -1.63547073144019
H           0.86100820768265   -0.22684348249210   -2.59149987561255
O          -2.11764009360081   -0.14753615827010    1.06009173495055
H          -1.65589546338428    0.53896690339739    0.54041640161396
H          -1.81733599808204   -1.41740322175434    0.12472031168381
H          -1.78500743934007    0.01012400488670    1.95827637377649
N           1.09663771342806   -1.85844152602582   -0.29041223146195
H           1.10018260344974   -1.04117703059978    0.40261077854784
H           1.47249129766183   -1.43055180697658   -1.19330690543497
H           1.67182259990400   -2.62257608728659    0.04454056240610
H           0.10574208821298   -2.14867277030213   -0.41820421864682
