    26
        -50.44273655  Gyration_radius:  2.42588293359 Dipole_moment: 4.782
 S           1.57577353075883    1.50677820120355    0.18774878409530
O           2.93840952839423    1.08504361570742    0.01225673753608
O           1.36917421096752    2.85958131240304    0.62649184338594
O           1.00948534632611    0.59545388061187    1.43311406580348
O           0.68407273956541    1.09454891892673   -0.89781820209577
H          -0.58185750730401    1.82525528435328   -0.24987278508340
H           1.56350146604334    0.85667644280298    2.16264077245218
O          -1.21044941226600    2.17723997275185    0.43036981067383
H          -0.64223113808024    2.80386421053882    0.89834116586549
O          -0.09020574278351   -1.92985167939219    0.80699345118537
H           0.18345756175610   -2.27704413549224    1.65692387174482
O          -3.08445003217107   -0.24056078917884   -0.92496326709884
H          -3.25812937834369    0.66769133121767   -1.18395554784701
O          -0.76292652593688   -0.92107619030329   -1.90278108913416
H          -0.17923116712425   -0.17987481835057   -1.63995082849170
H          -0.52243243656289   -1.65868945250528   -1.33407488007540
H          -2.28728204521561   -0.53393268414852   -1.44959709508490
O          -1.83103053334026   -0.11225582522545    1.25290486632694
H          -1.04883224896506   -0.76690173477157    1.10071421664175
H          -1.49513555130792    0.86030743679450    1.08646539883944
H          -2.46648607187017   -0.24787152665924    0.43494026746756
N           2.10931598493664   -1.51275050515023   -0.55820545887213
H           2.43224737615541   -0.56300022078701   -0.35339134278327
H           1.95196042275448   -1.55005426552245   -1.55875116638815
H           2.87538526136034   -2.14310637899220   -0.35161726792105
H           0.76789636225870   -1.69547042084180    0.31507365885726
