    26
        -50.46489673  Gyration_radius:  2.45244956749 Dipole_moment: 3.801
 S           0.71808846038027    0.36191709976795    1.65051275513086
O          -0.70476597013395    0.20392377295082    1.40206997030101
O           1.52974291824685   -0.17237297625659    0.57249807328742
O           1.14431216701487   -0.00384113085328    2.97138131613996
O           0.96092727699458    1.96465475832138    1.55446259544000
H           0.99946942061089    2.22120933848615    2.47077906491137
H           1.09840400108716   -1.65665796334707    2.40458870395568
O           0.86710320353058   -2.56142499319733    2.13758021514872
H           0.48033457533522   -2.97490081606417    2.91318946276127
O          -1.18190762778532   -1.07835739332870   -2.18563296790461
H          -1.56339057497197   -1.71210381803688   -2.79364474755185
O           0.11157078293845    2.77680934606574   -1.07442546568061
H           0.46868680766593    2.76974256427224   -0.17694626293196
O          -1.01658561912767   -2.13376551095046    0.18647339425955
H          -1.07884379293021   -1.29720481758203    0.68726933666361
H          -1.11210601378621   -1.54524185624401   -1.30437032987574
H          -0.25293412182049   -2.56871285396119    0.59855894878567
O          -2.01391048655151    1.26234090690462   -0.69689973413451
H          -0.80860202200140    2.42454369234357   -0.98481326889439
H          -1.99351206021321    0.51165778375940   -1.30465260555041
H          -1.67724382576331    0.91596089037828    0.15129650592014
N           1.01774373486759    0.45342187414805   -1.87227241242781
H           0.21168836694640   -0.12754205331672   -2.18018168016375
H           1.80249185989601    0.37454403495081   -2.50856479637737
H           0.70757435069286    1.46521338218818   -1.73058177606199
H           1.28566417887995    0.12618673863356   -0.88767428517737
