    26
        -50.44273652  Gyration_radius:  2.42594290239 Dipole_moment: 4.784
 S           0.22508265712948   -2.16255326083424   -0.24955276651838
O          -0.92634349182187   -2.91876396866558   -0.65928200899705
O           1.39571017523000   -2.91296385446086    0.11337356290892
O          -0.22744183368220   -1.43177764017799    1.15161549192785
O           0.50541594803147   -1.00401324395323   -1.09964597332910
H           1.81368730490758   -0.60625481074556   -0.27132596572654
H          -0.40234879322339   -2.16591048172049    1.73281630690005
O           2.43352348509745   -0.47563923221042    0.49057674233936
H           2.55715635027108   -1.38800236734110    0.78515568675275
O          -1.52247340477587    1.07146177747835    0.95792645222696
H          -2.01511735504520    0.89635352725703    1.76072085156599
O           1.73898002417092    2.70781911351045   -0.26885644435388
H           2.57954897508949    2.34492405597375   -0.55847608699295
O          -0.15093453861404    1.53572278485702   -1.63415270362325
H          -0.91569178973597    1.68024087222736   -1.06883627703868
H           1.05420131182750    2.38042013084315   -0.91736810175859
H           0.06567614046862    0.58413054969555   -1.55221802981335
O           0.94751507726791    1.21807181074823    1.59801573041894
H          -0.03705257865811    1.04430071399244    1.34459930167177
H           1.52374231800007    0.40528507138959    1.29188126470005
H           1.27553026697540    1.95718771911457    0.93678532486403
N          -2.44573319171057   -0.59126123654390   -0.84699199208929
H          -2.31918669332297   -0.24192935079842   -1.78998155242559
H          -1.82839973015978    0.37094821861675    0.28774144702806
H          -3.42287663566125   -0.84102275358004   -0.74851976579106
H          -1.90216998806508   -1.45677414467420   -0.78600050480972
