    26
        -50.44273655  Gyration_radius:  2.42593325298 Dipole_moment: 4.781
 S           0.04498147028483    2.18296847264965   -0.14745151799299
O           0.91380830557377    2.77616999589051   -1.12661444389980
O          -0.61100050924127    3.08059417992426    0.76317741869928
O           1.03890508597125    1.29708706873237    0.81664311157848
O          -0.83243962245856    1.14289098736974   -0.68760857491648
H          -1.55117190622964    0.89914491025376    0.71978427443297
H           1.61311323625500    1.95420627976041    1.19843378850537
O          -2.04459477769702   -2.37897458035115    0.76678635965965
H          -2.83655085599126   -1.87119324282040    0.95934678203935
O           1.59286772288862   -1.35848758333132    0.02896539120948
H           2.45618578398080   -1.31649837972295    0.44219345401767
O          -1.68623977090609    0.81558012368290    1.69775499192215
H          -1.47975083024701    1.71394633978835    1.98900124339594
O          -0.14960919770267   -1.16099122699717    1.88792011525815
H          -0.89608732742642   -1.79315298528274    1.52169787445683
H           0.56528991072542   -1.12616317612128    1.14510357789346
H          -0.65408790288387   -0.24940722990550    1.91452568973166
O          -0.99584166351842   -1.42558364224767   -1.42428377965477
H          -1.76219910791641   -2.11877711559343   -0.15476507228862
H          -0.97257576118005   -0.45972213839187   -1.26397356661640
H          -0.08508593813817   -1.72590885514282   -1.34922897482785
N           1.68750716652361    0.25821205503755   -2.03297248232583
H           1.02556654067750   -0.00217418915816   -2.75496249919810
H           2.59499274736572    0.34500069293386   -2.47548940611955
H           1.41294602618650    1.19180118013579   -1.71465328344637
H           1.61107118510366   -0.67056792108163   -0.71933045152103
