    26
        -50.44273654  Gyration_radius:  2.42590808838 Dipole_moment: 4.785
 S           0.15343862442076    0.16724440720771    2.17669980142846
O          -0.83262150873497   -0.30890882299248    3.10743378748566
O           1.23478778063406    0.94203453825613    2.72058940827862
O          -0.67737040347087    1.21538588606561    1.22104170810646
O           0.57783057058619   -0.83697512365009    1.19949983566224
H          -0.90912358617164   -1.38679863245597    0.99121458522315
H          -0.98278635649412    1.87485634212447    1.83680737938854
O          -1.02164445027988   -2.08105394486106   -2.24809916851300
H          -1.31249258988665   -2.80751781231516   -1.69155472401654
O          -1.89643048028591   -1.40235694819355    0.90936312008026
H          -2.15823473730424   -1.10285001175225    1.79044191762004
O           0.17232017398947    1.49211195171785   -1.45841655386547
H          -0.12760596186665    2.40175195266427   -1.47716422036119
O          -1.89256091491085    0.01531877571595   -1.16283417210896
H          -1.62429156321888   -0.81083210904742   -1.74302367603028
H          -1.98185220308547   -0.42187545871864   -0.22095168988806
H          -1.06547102235755    0.63143754994583   -1.16863073896494
O           1.28514134040065   -1.25760191477119   -1.34801477600290
H          -0.07151388457453   -1.90102644966948   -2.00008943687949
H           1.32514300181464   -0.36589893054724   -1.70663235186961
H           1.13008820024674   -1.15216180010491   -0.38678398419665
N           2.23050951296402    1.43051289394676    0.16485806588261
H           1.88039761466735    1.25943036488974    1.11165226508061
H           2.78497742891506    2.27812101381111    0.19672765695765
H           2.86233574286634    0.66682900482377   -0.04690939310734
H           0.91702969114990    1.46082328792612   -0.76722464539360
