    26
        -50.46942740  Gyration_radius:  2.44009535735 Dipole_moment: 3.747
 S          -0.83803750238826    1.17642500877725   -1.02740396455548
O          -0.24484787092111    2.00804051678570   -2.04233721197147
O          -0.23980628241487    1.44165943380344    0.30322692836001
O          -0.71048633143036   -0.24848879638565   -1.33097501167293
O          -2.34196637465188    1.52369649855497   -0.91765430446131
H          -2.71799006248485    0.96988206905120   -0.18398686586130
H           1.05488590415190   -0.45401578578949   -2.62858716592898
O           1.64373119362486    0.30858673607779   -2.65026818202749
H           1.01584455060827    1.06818309598785   -2.64282004948535
O          -3.22791293024716    0.18079871106499    1.15159667100245
H          -3.66372590477200    0.81527517420887    1.72393311063942
O           2.01131624334417   -1.35215667445242    1.49819219158419
H           1.46427091642600   -1.01916805889597    2.21933807066694
O          -0.13764477384020   -2.28694970514711    0.13208148622090
H          -0.35959549979280   -1.52138289532137   -0.46338175748723
H          -0.62144202251222   -3.03832438770598   -0.21214984948119
H           1.40996864238520   -1.90494067766076    0.96736774748372
O          -0.80527888130045   -0.43737009338131    2.06951572567075
H          -0.54257799656426    0.31469000954797    1.49329671845419
H          -2.40970549134365   -0.10779865379395    1.62580114648595
H          -0.67408602274180   -1.23295697728421    1.52718990531703
N           2.22098208468331    0.76426288359777   -0.11696615221461
H           2.32017125517329   -0.09227514486245    0.48913736029198
H           1.26148365675824    1.17833850291333    0.10648657709253
H           2.96136813569617    1.43503699388192    0.05818469350249
H           2.17108136462886    0.51095219649563   -1.14881783760825
