    26
        -50.45391471  Gyration_radius:  2.54643190887 Dipole_moment: 4.390
 S           0.69243662675169    0.29220549630089   -2.33841753544411
O           1.60360563582989   -0.36839179415521   -1.38300796693133
O           0.90297223239912    1.71196457107048   -2.35252557003881
O          -0.68487428084539   -0.09894915147109   -2.08579626129264
O           1.06134723520731   -0.28702282478696   -3.76897070523142
H           0.65539778617995   -1.15045527278963   -3.79020940873855
H          -1.11956156236494    1.02196885087876   -1.04905353011608
O           0.76165655346599   -0.20787581927487    2.45855763496565
H           1.21915143198672   -0.55306178578711    3.22536573571105
O          -1.18307222326080    1.79832707616457   -0.42465152425669
H          -1.29064910859891    2.55817866471736   -1.00133994847793
O          -1.96322159330664   -2.21260353700795    0.58504118188964
H          -2.41490564794809   -2.83128823274271    1.16034095225413
O           0.72166295921974   -1.98357651091023    0.60885129709288
H           0.75109109775209   -0.96061850462712    1.77410842958420
H          -0.23157779654972   -2.16422320897540    0.46220262109902
H           1.03885074789543   -1.52424499402648   -0.19097724492155
O          -1.96281048428388    0.21095611913378    1.77931703021083
H          -2.10520817180724   -1.32082847680609    0.97133533222362
H          -1.08021558565260    0.14599140442623    2.17255306009503
H          -1.88768672457276    0.83996829051929    1.04961323056470
N           1.32432055504899    1.44137992073795    0.45074854531102
H           1.24465148499389    0.95094871064566    1.37269513341627
H           1.97388611036582    2.21989348025276    0.45895158661928
H           1.60978004182170    0.72182681816597   -0.28721750579412
H           0.36297267026961    1.74953070035299    0.14248543021367
