    26
        -50.46200298  Gyration_radius:  2.50525861358 Dipole_moment: 4.552
 S          -1.58027366812693   -0.15282728074988    1.85252647809250
O          -1.19868179902085   -1.55176475437459    1.69017055012291
O          -2.29316399433639    0.16023137065454    3.04748212916533
O          -2.64691180656010    0.11416501797225    0.65466155761274
O          -0.45873331297027    0.72493321943384    1.52824845037043
H          -0.43720663348890    1.72429270893829    0.26198873491272
H          -3.44041265923966    0.05422229491915    1.17478750080455
O           2.21655088587253    0.32503914342153    1.33918725243730
H           1.35024171737328    0.65715363897256    1.63374645577867
O           0.70314007844235   -1.18791260967439   -2.08377238446476
H           0.69403067636585   -1.64805760574800   -2.92353217048533
O          -0.36643292209383    2.29962409152255   -0.54194609086688
H          -0.55512731649969    3.19225292734260   -0.25065015957662
O          -1.49568159467975    0.20768233075424   -1.87055798046731
H          -2.02029544104209   -0.02921537362679   -1.09353308454138
H          -1.14735625787672    1.09038114353274   -1.65625005209605
H          -0.16014631073166   -0.69004116059611   -2.02940691858169
O           2.06646680837311    1.15735485379955   -1.19710680148720
H           1.27513541493903    1.70965863540545   -1.08148307409498
H           2.36243510385078    0.73962010473086    0.45687697672802
H           1.75918885437342    0.35624403724617   -1.64375058938661
N           1.08707374824176   -1.87789708688262    0.53747175349432
H           1.67709136132418   -1.05407942407698    0.90647936875313
H           0.12744515613473   -1.78463136309434    1.00940354767813
H           0.97405349503820   -1.76481015366759   -0.48618013922798
H           1.50757042627915   -2.77161868615300    0.76513868931517
