    26
        -50.46200324  Gyration_radius:  2.50488344717 Dipole_moment: 4.535
 S           1.92422730560355    1.49838506546814    0.03598020736756
O           2.75472685909276    2.62500826895798    0.31024400602368
O           2.56415021129949    0.19319521873379    0.16309627679963
O           1.57330687675381    1.62141315202135   -1.54653109243233
O           0.61738831841359    1.49350082053656    0.68862955299699
H          -0.77948395232713    1.61678858587965   -0.10818619537706
H           2.29158560459659    2.19376680136197   -1.79198701542719
O          -0.51708700069368   -0.11394939132819    2.55434044159143
H          -0.14953892011918    0.66966109863347    2.10874441473261
O          -0.75073095234902   -2.22019104576126   -0.88225913409883
H          -0.92274163424350   -2.96505358852639   -1.45896114710784
O          -1.65434988078578    1.62475877575324   -0.57403024374078
H          -1.98698317660592    2.52020284199836   -0.50522300804970
O          -0.47629903903867   -0.07341079481248   -2.34688043476440
H          -1.10794014188611    0.53344849891520   -1.92346847727015
H           0.37811743014565    0.36442309178166   -2.23206271853715
H          -0.62623719549884   -1.42926831325553   -1.47800033530620
O          -2.45078269049580   -0.64817358333257    0.78671060259827
H          -2.36740256910239    0.17959142804362    0.28423033177938
H          -2.02953589946686   -1.32588492743807    0.23991660865502
H          -1.36815660367523   -0.29518642342235    2.09119971045108
N           1.02368492214744   -1.64313553766153    1.11992261394828
H           0.40641508517344   -1.11340527164928    1.82797816815350
H           0.41505767393121   -2.00540865481101    0.36376121463207
H           1.69269531137243   -0.91065741315749    0.71001619866586
H           1.54591405777845   -2.39041870290375    1.56281942371124
