    26
        -50.46797330  Gyration_radius:  2.47252614307 Dipole_moment: 6.428
 S          -0.87386638801620    0.54369489134100   -0.47520300233305
O          -1.86544008061945    1.45272715018642   -1.23186070771910
O          -0.65265385888497   -0.66354584324865   -1.24898491315031
O           0.36531391719535    1.29127807279474   -0.25964291058782
O          -1.49431302108776    0.24470645733021    0.82238967805963
O           2.14644546477319    0.04391516726359    1.24242216462934
H           1.11827291154492    0.03163428269258    2.27145089888519
H           1.68834222803879    0.64815077402653    0.61828794100065
O           1.27952476414419    2.03412979745599   -2.63188602596575
H           1.37037513760575    2.98806991293540   -2.60948179472831
H           1.02976897374154    1.76061215663868   -1.72322961131507
O          -1.21160049209017   -2.24618833753428    1.74901465284903
H          -1.82977424819935   -2.90226809883242    1.42411293146828
H          -1.45133855886956   -1.40440492498878    1.30655864603912
O           1.08862596895166   -2.10852350997188    0.17758263582046
H           0.43617658103603   -2.43024648340368    0.81840323337581
H           0.55168085644981   -1.65450307695081   -0.50095452037707
H           2.00861636508177   -0.84834718885146    0.83255505657061
O          -0.91788172554815    0.76927716372816   -3.50328759833465
H          -0.06434879177823    1.24892710873321   -3.45785214721047
H          -0.75127973701985   -0.08302151791589   -3.07245525244326
H          -1.62729892921866    1.29544837650555   -2.19536850479237
N           0.15338468941984    0.01062989438659    2.82953201321024
H          -0.06936983381206   -0.94531192078641    3.10767830226186
H          -0.56230691094392    0.27901139608413    2.08941437509680
H           0.13494474810734    0.64414830038963    3.62080446968947
