    26
        -50.46026520  Gyration_radius:  2.46608328862 Dipole_moment: 6.816
 S           1.84020461013169    0.58073005140753   -1.16574995560405
O           0.89418116524202    1.71136484523252   -1.15620972216977
O           2.36970757143142    0.32208485217507   -2.46571324933675
O           0.89840326029418   -0.70305899140223   -0.81575429015252
O           2.75541608552544    0.63006874800116   -0.05248070968270
H           2.03077237467484    0.52723441334447    1.35559529721814
H           0.35923677695365   -0.76200581835804   -1.61078667283820
O           1.53898584427013    0.49390584626905    2.22356876406184
H           2.13853165516655    0.86647989623756    2.87188734939009
O          -1.91951554199812   -2.10796506478270    0.96965292385494
H          -2.00542770335195   -2.94970939977267    0.52024860392816
O          -0.75637281348576    0.43743934912788   -2.62401005779612
H          -0.55197932069328    0.50596411094389   -3.55784054920791
O          -0.48696488148492    1.82086947189561    1.02900048125887
H          -0.12810542798591    1.05993956146522   -2.16518608853081
H           0.10713492633969    1.35558196809918    1.64990681332010
H           0.07771032549638    1.96525958996121    0.22933330639258
O           0.61868476737553   -2.00348284787660    1.59397526576190
H           0.89020250220715   -1.22812437220253    2.11272139680249
H          -0.98737721408164   -2.08598858065021    1.32341360901404
H           0.92335063559752   -1.79184215255110    0.69946343293655
N          -2.14239295577012    0.26460560594058   -0.20604861727262
H          -2.09036043007858   -0.70525721305299    0.20922686545968
H          -1.48328051202953    0.91594639617994    0.37791386561347
H          -1.79694024637776    0.26477152130969   -1.17646726971545
H          -3.09380545337819    0.61518819304526   -0.16966080270895
