    26
        -50.46147010  Gyration_radius:  2.5908695929 Dipole_moment: 4.217
 S           0.15304216517790    0.45653285866825   -0.57487038757696
O           0.48858429622371    1.15803405670166    0.79244075280082
O          -0.80507855256689    1.26376861101849   -1.29049702231696
O           1.46055344029625    0.36224439212580   -1.24695802799990
O          -0.33044515519539   -0.87607187611587   -0.24073370891983
O          -3.45859198923744    1.27392240645245    1.51268491322621
H          -4.36420363990849    1.58123255254887    1.45069533225533
O           2.07119261529004   -2.14578721080761   -2.04023970227216
H           1.86384679953869   -1.20253704799813   -1.88529074462098
H           1.44618494625828   -2.44802673847440   -2.70084799610229
O           1.52020703256195   -2.55652206943794    0.55795451082439
H           0.67873586130045   -2.06900362236043    0.39386070738282
H           1.83179082766648   -2.75479174014750   -0.34892751650467
H           2.34529585148101   -1.35308409749941    0.87292539715232
O          -1.41127034239167    2.84071793759274    0.80171337290025
H          -2.17649017756233    2.35790655689220    1.19291037720134
H          -0.22199715451892    1.86687666825183    0.92766945327145
H          -1.44662682953379    2.65987879855241   -0.15009384114197
O          -2.91868271938617   -0.24311719009221   -0.61086523310134
H          -2.21942067669869   -0.85373239770670   -0.33395882349599
H          -3.33583428256142    0.62792912387603    0.77562862602747
H          -2.41917833075991    0.41754276616577   -1.11810802994426
N           2.76143123293527   -0.33338829644560    0.85451270356379
H           3.77551725832456   -0.31350791669113    0.88965220669131
H           2.34068861688054    0.23094667883161    1.59114088082410
H           2.37074890642882    0.05203680607316   -0.07239822024115
