    26
        -50.46863467  Gyration_radius:  2.40829439112 Dipole_moment: 3.382
 S           0.29113183841504    1.03172755546803    1.41945277384523
O          -0.78762393373683    0.09196333686900    1.22495818660628
O           0.16535328239175    2.19442035491532    0.54960931886863
O           1.60568685044785    0.42366948698328    1.33090773894244
O           0.15417912802457    1.56207474653475    2.90650012093730
H           0.97385714590676    2.02641989453135    3.04042104377472
H           1.67648479748759   -0.33346523795566   -0.16532575663175
O          -1.95524612532654   -2.36648400842452    0.72627017943610
H          -2.07595994852995   -1.50607787377512    1.14977030986890
O           1.56742701317973   -0.59518079371858   -1.10459296832011
H           1.59176939327645    0.25260678916150   -1.58569883592521
O          -1.54866310622742    1.38657765738735   -1.40470491105469
H          -1.20092590711796    1.62858994508606   -0.52732574574090
O           1.26556186305955    2.01311450240583   -1.83645362163392
H           0.91295984562877    2.15300312745346   -0.92616852426526
H           2.01372510640940    2.60479188398860   -1.92576699215932
H          -0.92779614192575    1.78339298376013   -2.02678070657639
O           0.54251616398629   -2.19474803254517    1.80582474030531
H           0.19417136658311   -1.29104569385597    1.71801618117851
H          -1.15044867589239   -2.71579590855342    1.14372630205019
H           1.49026590296911   -2.11084975951961    1.68672132837896
N          -0.96900645515471   -1.22714654286383   -1.46028993519776
H          -1.17294031960222   -1.69822684751846   -2.33480120473318
H          -1.35094204722356   -0.24484873234056   -1.45504173511304
H          -1.38549084031633   -1.75046220759661   -0.63483882129819
H           0.07995381328134   -1.11802065587910   -1.31438846554476
