    26
        -50.45364620  Gyration_radius:  2.66185299756 Dipole_moment: 7.066
 S           0.68775335369501    2.56941910291485    0.59072906072190
O           0.63253906207205    2.69147499689436   -0.86761456180202
O           0.40455930603702    3.76231984782641    1.31445933241511
O           2.25137811287192    2.23240094867662    0.89844863683414
O          -0.00021050434906    1.35915558349923    1.02622000638142
H           0.99778464248006    0.11270252719092    0.98958402352627
H           2.55557947135970    3.08077076792785    1.20341716345923
O          -2.12705726384011   -2.04576016980537    1.77167823966654
H          -2.99375837189710   -2.44427030985348    1.85310297493607
O           1.69443280687455   -0.55824571998017    0.75394030874972
H           2.48706506694128   -0.25601582675819    1.20144905465733
O          -1.11071835831569   -1.16707283914433   -1.84214496368507
H          -1.52569499041979   -1.72790672698742   -2.49762133454687
O          -0.13688822899793   -2.60273894783560    0.07805982757043
H          -0.76572227691622   -1.77797726733517   -1.11753299316929
H           0.59052374200272   -2.07453769889713    0.43499541003852
H          -0.84233263554851   -2.55003850842856    0.76043049670248
O          -2.34534825604903    0.19734003356742    0.34812407255384
H          -2.07379650878417   -0.12127791929046   -0.52379578237514
H          -2.26771251669961   -1.16012936227300    1.35575550066707
H          -1.59548240804723    0.72395579004465    0.67600129139043
N           1.11051315542695    0.33997639315605   -1.70835837585051
H           0.22249359218427   -0.16304207680789   -1.92940715449001
H           0.87923330504658    1.36931382944889   -1.41925527123675
H           1.52000375410430   -0.10978362540179   -0.85645326545546
H           1.75086293873136    0.31996716764975   -2.49421168768318
