    26
        -50.44166771  Gyration_radius:  2.82179946259 Dipole_moment: 5.893
 S           1.53324194920735    2.70146224145371    0.87554779415453
O           1.89887204092399    3.79195660347549    1.71676231123424
O           2.26888440549949    1.46643449876216    1.06792918134282
O           1.86725181902069    3.18772323050491   -0.62937355835959
O           0.08441022358383    2.41900186432843    0.81386799890811
H           0.08723820875836    1.76170959520365   -0.70996839383985
H           2.36947282798540    3.96979018568015   -0.42985774622190
O          -0.88894905463792    0.17181805337579    1.34574666703531
H          -0.56363661979823    1.14857941840787    1.30053027823528
O           0.08973737815047    1.19891177988116   -1.51805809651647
H           0.59709849604535    1.69632296348978   -2.16133761313857
O          -1.98059530201404   -2.55502531922501   -1.23597137390443
H          -2.74342374939468   -3.11285828790855   -1.07968982255888
O          -2.26499067074680    0.01473789082950   -0.72577130097571
H          -1.59388476886451    0.10253042426908    0.53559057756234
H          -1.62868364705724    0.48042329978759   -1.29398635348680
H          -2.22319148631289   -0.93922521755143   -0.99112897643188
O           1.18347634152719   -0.66685369787788    0.16950514187725
H           1.75166254829341    0.06021467394504    0.55185819215710
H          -0.05538716520567   -0.32831498162192    0.97341238265392
H           0.91893581852686   -0.31597030157635   -0.69878691053193
N          -0.07738538981461   -3.30791137407662    0.51911227197984
H          -1.26926837117069   -2.86049912924917   -0.61313013146100
H           0.61103595110772   -2.56643551285658    0.42047574269181
H          -0.35585009542594   -3.33552994819576    1.49234395348357
H           0.38392831178852   -4.18299296329567    0.30437778415137
