    26
        -50.45364631  Gyration_radius:  2.661798587 Dipole_moment: 7.066
 S           0.42440729912285    2.49061605333529    1.02025931339889
O           1.07632464886747    3.75114156190254    0.90578529336003
O          -1.03793841671125    2.53127327898864    0.95290739904457
O           0.73444405706174    1.97432525707869    2.53375727427999
O           0.94180629725344    1.40715479621482    0.19192102002431
H           0.97122404074362    0.04261640899364    1.02151099392097
H           0.98560412600995    2.79279159355096    2.94884523269643
O           0.77009944932752   -0.72530206827452    1.62223384050950
H           1.19029607385012   -0.50178878973652    2.45489296029310
O           1.91529666670326   -1.64603399001519   -2.33893543367129
H           2.02921625815922   -1.92429623025934   -3.24794977006994
O          -1.75566033564284   -1.12300633393030   -1.28302580910147
H          -2.37120986250225   -1.66400626214828   -1.77777301646968
O           0.35880446213488    0.51757644654295   -2.29371514948224
H           1.44732747078966   -0.77597626236018   -2.37247308521381
H          -0.49449956012316    0.11519305440203   -2.08053177777080
H           0.64630266649999    0.96215901990135   -1.47708954120369
O           0.23958179074095   -2.55425659425757   -0.46656437138337
H           0.92447578917060   -2.37049184858112   -1.14719892569466
H           0.55584636826374   -2.10345443105845    0.32861377243148
H          -0.99829916387982   -1.72875291149453   -1.00593308333702
N          -1.73685396433240    0.09191158845184    1.11398997500402
H          -1.50950824386923    1.15780636077432    1.02035776585039
H          -1.91792829141777   -0.30570012922754    0.16546859551445
H          -0.86292501564491   -0.35476858494252    1.47789134765993
H          -2.52623464058244   -0.05673097386781    1.73275518940691
