    26
        -50.44166768  Gyration_radius:  2.82189439118 Dipole_moment: 5.896
 S           0.90048964154945    2.02254027638137   -2.34829087420062
O          -0.34337450861189    1.31024075384692   -2.56973830181670
O           1.04581953076484    3.26610193146321   -3.02865954873185
O           2.06784605470065    1.07135090508080   -2.93617158611734
O           1.20693640331748    2.06176587337382   -0.90362459193573
H           1.67324397228180    0.47422173346537   -0.76945087523488
H           2.34245206202085    1.60412218091824   -3.67405773253995
O           1.76594352437211   -0.49484987325224   -0.62136276892813
H           2.35307828960881   -0.79381124875662   -1.31741953903018
O          -0.41633950022587    1.31463842014441    0.85333376168099
H           0.20649586781714    1.80223943287828    0.19296814937895
O          -0.42778106861779   -2.13984542028861    2.68683268848834
H          -0.67613081452139   -2.21359154030519    3.60902969302895
O           1.19404899231524   -0.16265650822727    2.05057790933774
H           1.67161432706511   -0.44397800587505    1.25225869604420
H           0.26206885765641    0.76164606341349    1.47929939104027
H           0.65941929692348   -0.94506692447051    2.34082706865134
O          -0.96782885866891   -0.47145289822256   -0.84588304664922
H          -0.86652220750139    0.16061106798105   -1.61256056624472
H          -0.09513642760873   -0.89790361775759   -0.78561797561415
H          -0.81711757646448    0.57864230728561    0.23581157921031
N          -2.66789939141466   -1.54411987909921    1.30992108466032
H          -2.29921844552912   -1.30205571314641    0.39398952708029
H          -3.19652525358257   -0.74754635510697    1.64395623775932
H          -3.31359982423961   -2.31368910255083    1.18531150032310
H          -1.26198294338932   -1.95755384909936    2.17872012022882
