    26
        -50.46021520  Gyration_radius:  2.6009546308 Dipole_moment: 5.816
 S           1.56228121884774    1.54674220159744   -0.22522851373234
O           0.18678338918105    1.55829396330992    0.21260691379950
O           1.70855645539967    1.03831762869021   -1.58863607184142
O           2.45098769361601    0.84410742622257    0.68785719651481
O           2.04735119832154    3.05074105553779   -0.25330472572745
H           2.97736793032138    2.96054320240543   -0.43436872699515
H           1.90918039921747   -0.59492792934340    1.05435311100735
O           1.52301497491363   -1.50782133859693    1.16670959639043
H           2.17775012594780   -2.01517588452295    1.64938245315003
O          -1.67269209852017   -1.31414439942129   -2.11926182478047
H          -1.85635957227273   -1.02530712393433   -3.01451197978234
O          -2.98631132027027   -0.11748751215190    1.79221448423784
H          -3.46900873387200    0.53107998078593    2.30638017110711
O          -2.26373842472579    0.72487140612972   -0.66932574202979
H          -1.41637359853709    1.13327957233044   -0.42217853395797
H          -1.97666077839236   -0.55238919823110   -1.52849729783762
H          -2.64705762350455    0.39873569885713    0.17396910912671
O          -0.40704256194109    0.16060803765288    2.43974906417032
H          -2.05816969926369   -0.08735293256372    2.12195879356145
H           0.11393906744988   -0.62362801595255    2.22716599260186
H          -0.18369882847494    0.80126403837262    1.73909230172304
N           0.86079185761944   -1.40375563590084   -1.46882541497510
H          -0.17978166048085   -1.42389280719601   -1.73019538241314
H           1.38793078800797   -2.04225648257967   -2.05559072870795
H           1.21621730479976   -0.40061039225555   -1.59597659414924
H           0.99474247661648   -1.63983455924716   -0.46553767045085
