    26
        -50.45981106  Gyration_radius:  2.52922802493 Dipole_moment: 7.026
 S           0.97652259495873    1.44095779821472    1.34726793995980
O           1.02401562343509    1.31642431718768   -0.09241114819591
O           1.88418149941790    0.50600466582591    2.01229956201784
O          -0.36762200796943    1.33294188880320    1.88949417251176
O           1.48572372176900    2.89384317242351    1.69362418347561
H           1.29275515585800    2.96307126678432    2.62291407568181
H          -1.09208473599694   -0.07019031046731    1.80628297940192
O          -1.45854243182553   -0.99730618364790    1.76318277379867
H          -2.15391588297618   -1.03401354345666    2.42147836153002
O           0.84718190117724   -1.05781917825755   -1.27960827701757
H           1.04848088069511   -0.14034945844647   -0.99899073912674
O          -1.25036120455228    1.66587591422205   -1.54205779581226
H          -0.47750451791699    1.73610168169636   -0.95584781711676
O          -0.16587010242586    0.23128199669832   -3.68043440128110
H          -0.88400662428220    1.50069852488216   -2.42719582110394
H           0.47411453602254   -0.24094999269700   -3.13143108040764
H          -0.92487669037561   -0.35062939982738   -3.76579925390139
O          -1.74878128198715   -0.89190015844458   -1.03418974239062
H          -1.76586369246325    0.08129094412514   -1.21210317465990
H          -0.15265873767714   -1.09563213056909   -1.28588782521815
H          -1.86447723791574   -0.98060222738703   -0.07786950542644
N           1.06458421339778   -1.80032950275994    1.19838853537837
H           1.51066368436297   -0.90987863050941    1.59716501053098
H           1.55359828678145   -2.63800044290538    1.49339893743707
H           0.07632045444773   -1.79219624342766    1.51112403950940
H           1.06842262615797   -1.66869475814164    0.12720603034941
