    26
        -50.45683624  Gyration_radius:  2.52381187033 Dipole_moment: 8.064
 S           1.82446851013933   -0.97143161797350    0.94322273480977
O           1.55139388868442   -1.90540796692863   -0.15649580696235
O           0.61460708965194   -0.47775585364320    1.54424142732005
O           2.73662426390111    0.07888932652039    0.51650808197240
O           2.58951437144756   -1.80858724800719    2.04488753504626
H           3.41865087572567   -1.99349245843417    1.61612009159290
H           1.91926291205202    1.11215349845782   -0.34187175209629
O          -2.20553674699236   -0.36212406440090   -1.25254692727861
H          -2.99351584838622   -0.76552059609584   -1.61753010326680
O           1.39002113639223    1.66167006969237   -0.98587541458056
H           1.92704325233044    2.43090243705450   -1.18398870260860
O          -1.58672069333028    1.20529528633326    2.31573408463142
H          -0.69608135286372    0.84024291580297    2.38714363545320
O          -1.30075330006936    2.16713287146848   -0.25158068788978
H          -0.35254564276233    2.05647113464329   -0.41096993638678
H          -1.73864955411398    1.42065785741688   -0.68047749602508
H          -1.57405867508813    1.74072779719238    1.50073213540701
O          -1.94170486418557   -1.17055307568821    1.15258454389178
H          -2.15654896759137   -0.37127717807745    1.68458393227367
H          -2.13734038702902   -0.70184524319854   -0.29146998330415
H          -0.97476681715175   -1.22454599853290    1.26828111020398
N           0.33152356175949   -0.59536829445355   -1.99056690346000
H           0.51703234563487   -0.93074397813507   -2.92954024784466
H           0.81826656517740   -1.22321121737560   -1.25314717210595
H           0.72334024151318    0.35638723398278   -1.84185594521625
H          -0.70352618484076   -0.56866561763138   -1.78612222357377
