    26
        -50.46836912  Gyration_radius:  2.47940359536 Dipole_moment: 2.953
 S           0.59835186924582    1.68576992876870    1.36197231555020
O           1.49660906523881    0.63085794490266    0.88457360681524
O          -0.66157232428664    1.13620224651538    1.80165302264754
O           0.46283346015390    2.78428327534707    0.42683176235466
O           1.32946408111817    2.30495327014625    2.63065617613764
H           1.09613139331517    3.22267572117615    2.54346938276951
H          -0.38674366442971    2.13260579182610   -0.76935162974619
O           0.54987484133124   -2.12743037944216   -1.65469676979419
H           0.94202012809417   -2.69064375049479   -2.32210042277425
O          -0.83637962832197    1.69239786034908   -1.53303709720445
H          -1.39456352435429    2.36090956275539   -1.93406537879007
O          -1.94099204629083   -1.16917840818558    1.46813414701830
H          -1.69175690101897   -0.26433047304819    1.74077392283289
O           1.51113812925024    0.28228304772796   -1.78051787109850
H           0.74555270420497    0.83818524993307   -1.99511839770793
H           1.69178069163009    0.47730353686212   -0.84042845521127
H           0.95819172184474   -1.21856162078173   -1.77402818178715
O          -1.94694275285626   -0.82464032009976   -1.17618422232698
H          -1.63697507643805    0.09003308597542   -1.28942277706260
H          -1.22022314310637   -1.38676593526007   -1.47701231270365
H          -2.18657483130902   -1.07992738404132    0.51802160306860
N           0.52210944875581   -1.80358105173019    1.04528574766040
H           0.57855350803863   -2.14283774679464    0.06593061481446
H           0.98930109749762   -2.43293314139177    1.68732536655703
H           0.96177541489800   -0.84061474222042    1.07105369746091
H          -0.53096368221361   -1.65701556876385    1.30028213050400
