    26
        -50.46731855  Gyration_radius:  2.49190640305 Dipole_moment: 3.591
 S          -1.87835146876298    0.73569387493407    0.06163812616374
O          -2.40045626180336    1.95652132237170    0.60144416288128
O          -1.01062218539707   -0.01450223449998    0.95606321016957
O          -1.27694510437304    0.87049038240340   -1.26212116019090
O          -3.14528995874526   -0.23713871526734   -0.14961855600478
H          -3.85000942789615    0.37927039095074   -0.32122743408596
H          -0.25936219798146   -0.34742968462282   -1.75338398088337
O           0.31397990948679   -1.14512796689028   -1.82702878853357
H          -0.19230074611078   -1.83828435738091   -1.36194676699046
O           0.81431578992413   -1.68010227265279    1.99155803137569
H           0.17294159895690   -0.95086671404693    1.92472611926109
O           2.48555933835306    1.93353739600171    0.28246836059641
H           2.99761953648545    2.47266889446003   -0.32267264253693
O           0.05889433618290    2.87270176734390   -0.15578101369869
H          -0.32782248524782    2.23373718665059   -0.78059814004643
H          -0.65283975143313    3.00716684052407    0.48110327822855
H           1.56760208461027    2.29803582882497    0.24236836722804
O          -1.24438047592992   -2.44475133633444   -0.01785944503191
H           0.33955800634675   -2.44706097092055    1.65247261724077
H          -1.24110882453983   -1.54146018899026    0.37162223403941
H          -2.15610736064632   -2.59979688091570   -0.27033396892924
N           2.20141623738625   -0.70647851458624   -0.07184209576114
H           1.48284685060203   -0.86173533852148   -0.85910582693633
H           1.77484098945367   -1.10885835889156    0.80630185262127
H           3.08156474276626   -1.16175145321847   -0.28721377703525
H           2.34445682831591    0.32552107326249    0.06896721687328
