    26
        -50.44493635  Gyration_radius:  2.7046956126 Dipole_moment: 6.286
 S          -1.18803351413090    2.17500111522106    1.62693499399057
O          -0.94349655765592    3.56560720706348    1.83135995373353
O          -1.79588992012033    1.83666750152625    0.33700179626270
O          -2.29635973976381    1.76163356632422    2.71633971296545
O          -0.04742723056296    1.29520489476171    1.88356335969187
H          -0.96404155439888   -0.09032772683271    1.94438518326836
H          -2.49565901661593    2.61025991439087    3.09734169924658
O          -1.61184699334233   -0.81852624040526    1.84287604899498
H          -2.45782780523116   -0.41668551816413    2.05065439083025
O           1.65139965814949   -2.16160545744508   -0.41237887367711
H           2.17817579751372   -2.95728922540774   -0.33573796573944
O          -0.49218621858994    0.53529811894007   -1.31723322177177
H          -1.09058047356507    1.13246755977282   -0.68775044999520
O           1.65457522323499    0.61063030064764    0.02749807192669
H           1.17852514315278    0.95603964280225    0.81900648130720
H           1.81770690274032   -0.32886620123182    0.20489236899840
H           0.44757689097342    0.61195038746810   -0.88650119849069
O          -1.03881282830894   -1.77195942338899   -0.53969617617171
H          -0.13444067967198   -2.11501485513930   -0.40766665544053
H          -1.36417291373843   -1.53556178420331    0.36531126070778
H          -0.79720729204908   -0.46410625027218   -1.08511312073543
N           1.97727323801092   -0.84790500702781   -2.73937105793700
H           2.56610822740414   -1.18572902704298   -3.49021771450535
H           2.36971965288172    0.02345930282908   -2.40060278565293
H           1.06517768054592   -0.63828228008719   -3.12775971609181
H           1.81174433314977   -1.78236051509572   -1.31713638569337
