    26
        -50.44493648  Gyration_radius:  2.70455112475 Dipole_moment: 6.282
 S           0.40114101870525    2.66269536511030    1.23897070715260
O           0.46773198414466    1.46646088669210    2.08308760194013
O           1.48648751501599    3.57460236189760    1.39962447391031
O          -0.90691892060082    3.44567979137148    1.75077217079001
O           0.10603669790378    2.27926644057996   -0.14193464530069
H          -1.39225830333935    1.65395585561759    0.21591758709461
H          -0.51655526149562    4.25011067878369    2.07574594970813
O           0.80389662286061   -0.74792405024832    1.02816125932103
H           0.70957151382540    0.16103987747258    1.55352323283952
O          -0.74806328254609   -1.69484391740228   -2.03432528148927
H          -1.16514048816704   -2.12258910304722   -2.78238553149395
O          -2.19065138158843    1.23064126345919    0.59480695500751
H          -2.34725519589034    1.70526214547006    1.41365694115486
O           1.18529117198211    0.19964623912181   -1.29125781629940
H           0.45170013834854   -0.18773788754191   -1.79371766580268
H           0.87616892588557    1.09188776999927   -1.00701192459803
H           1.07729477671645   -0.43987320572737    0.07695490924786
O          -1.57280779620941   -1.32456886086122    0.53230101834230
H          -1.95185746713235   -0.41315392059564    0.61176002871146
H          -1.50017953924186   -1.49173652386188   -0.42678994870971
H          -0.20725832259868   -1.07778629929002    0.90745747734034
N           1.48208229148581   -2.92796828819188   -1.16653994997459
H           0.03261329676558   -2.25009189753565   -1.76898472413153
H           2.16906072009426   -2.20416826939374   -1.34613648939777
H           1.42188477753928   -3.04547516336839   -0.16188102953792
H           1.82798451753556   -3.79333127862725   -1.56177531560908
