    26
        -50.44493642  Gyration_radius:  2.70460209439 Dipole_moment: 6.282
 S          -1.33280410005792    1.56907030487083    2.13262305736901
O          -1.64283046907048    1.38269430212762    3.51268079729772
O           0.08256920275860    1.81726536775222    1.84434046189582
O          -2.07749070511121    2.92609631980495    1.69685892763454
O          -1.84912347136355    0.53870426502014    1.23119121186460
H          -1.61739244151195    1.44322425568991   -0.14444616230197
H          -2.42367949217594    3.21542583953413    2.53442551639918
O           1.38038860020503    0.12664071253122    0.58465845653032
H           0.90965145813118    0.86845688792558    1.16714837995285
O           0.03971848370507   -1.69666935681966   -2.16590381601101
H          -0.14366181498022   -2.18243965917103   -2.97017154932628
O          -1.32304663346471    2.04348250943043   -0.86081253083449
H          -1.31410564512901    2.91304465708021   -0.45572355921982
O           0.85633106978288    0.86445062074060   -1.74087648772269
H           1.27228503694990    0.48438749530469   -0.41839821734241
H           0.50299516459130    0.02775581549969   -2.09875265464772
H           0.06125974459745    1.41641041849839   -1.53111108736757
O          -0.48347637076562   -1.59072307869328    0.58989442565240
H           0.71522341739334   -0.66663515597182    0.63593218328045
H          -1.13354892161653   -0.92384859429633    0.91406436079976
H          -0.66425757309378   -1.69919452820034   -0.35681164935639
N           2.15051510820380   -2.62690333576147   -0.77796382876678
H           0.85629251106197   -2.09039502818739   -1.75803893394735
H           2.73159987291116   -3.39186342446537   -1.09707281443302
H           2.75747307663030   -1.84991958778544   -0.54424358847214
H           1.68911488138002   -2.91851802243179    0.07650910102569
