    26
        -50.45446005  Gyration_radius:  2.74395394203 Dipole_moment: 5.599
 S           2.16067056219585    1.85884092966623    0.24711938480459
O           0.95501897413925    2.63304236596030   -0.07532422016420
O           2.34262174841837    0.72941119323848   -0.62859654401956
O           2.18826895726085    1.51496524138775    1.66233565131469
O           3.38260786237698    2.84178410238022    0.00479150554037
H           3.23032427029546    3.52169621780239    0.65422315202744
H           1.09017320960487    0.47527330844279    2.11279065492836
O           0.53690768872010   -0.99242757206123   -1.44561533388509
H           1.34010577209492   -0.44959069560705   -1.28944230770702
O          -2.67219962053458   -1.38470292670551    0.01904288721108
H          -3.35239784994793   -2.04719197645783    0.14595737099167
O           0.30105216588965   -0.08544723934761    2.36015118907029
H           0.18168172997337    0.03864281074636    3.30276966928094
O          -0.12035566283346   -2.34241798111046    0.75834626364662
H          -1.05772788978026   -2.12250285523475    0.62636578162469
H           0.52364754590242   -1.67524363084233   -0.73732661414666
H           0.19390665140323   -1.73916989723805    1.44693932673009
O          -1.90864370334710   -1.21717917448872   -2.59829705286754
H          -0.95675258396762   -1.25135115910215   -2.39455653302348
H          -2.50079160158274   -1.35674589291191   -0.94049229421868
H          -1.99347278987553   -0.74731139650477   -3.42843647090676
N          -0.80758490662699    0.76919693191929    0.03574171174101
H          -0.41059281614622    0.05846604087480   -0.64374763051897
H          -0.19894915436947    1.64748213809011   -0.05910249424954
H          -1.79786548593470    0.91873139247967   -0.13015458511506
H          -0.64965309333125    0.40374973463166    0.99451752192578
