    26
        -50.46313981  Gyration_radius:  2.55654051766 Dipole_moment: 3.430
 S          -0.14352803202458    1.51797203460282    1.64892213585420
O           0.87972781476969    2.00614591815175    0.76404937131202
O           0.00498166089658    0.07218249811469    1.86490558509802
O          -1.50328662372874    1.85491277787244    1.26754484249135
O           0.07773462528626    2.19777126596004    3.06222116050247
H          -0.79867129294549    2.14891235449534    3.42902124052064
H          -1.88661171490693    1.14505662864360   -0.10665672180637
O           0.19090827112087   -3.22617328560036   -0.17388468602671
H          -0.06115847670145   -3.57939291349408   -1.02784508768880
O           1.94300125193328   -0.00159086942895   -2.17469269264797
H           1.59852477273085   -0.49884590549762   -2.91784067460938
O          -2.06124687916979    0.67230247342056   -0.96352405753321
H          -2.91736754343821    0.98538922931480   -1.26165547651756
O           0.25389031035359    1.94212802032267   -1.82298023946998
H           0.53099149906544    2.16662910410674   -0.91255635729595
H           1.37742712153847    0.82092208729326   -2.10938007811856
H          -0.60575373777773    1.50153409959928   -1.71645862145554
O          -1.70616548916582   -1.58585194017548    0.60765788011346
H          -1.19366321950201   -1.04754400032001    1.23928188638350
H          -1.95185826831239   -0.95797444728418   -0.09148136823404
H          -0.60099461424243   -2.72965770442217    0.16678054981214
N           1.73090906494336   -1.08037533511782    0.24754489807295
H           1.84591485515277   -0.59001925443272   -0.68343760067384
H           1.10080933699662   -0.52354494672952    0.89318845777984
H           1.25959598100897   -2.00610372431538    0.08270266966551
H           2.63588932610856   -1.20478420507120    0.68857300448606
