    26
        -50.45192350  Gyration_radius:  2.5451602489 Dipole_moment: 8.318
 S          -1.87575816598215    0.27147004169152    1.80471525069233
O          -2.92242795674511    0.70308566122278    2.66933763697487
O          -2.02647070412972    0.59892199124275    0.39224125968690
O          -1.95702791859884   -1.36388418807385    1.82711597825663
O          -0.51531652181535    0.54711958691762    2.25860633531997
H           0.45928830693233   -0.61980776959313    1.85231870152151
H          -2.69828964672990   -1.49369215988583    2.40981361042683
O           1.46913246807159   -0.39835009114032   -2.41445923057637
H           2.10588820445196   -0.85843342668517   -2.96099956099997
O           0.95455595194284   -1.40441094385932    1.48071539645927
H           0.84075531292518   -2.10469348948377    2.12469136124704
O           0.57896921980519    2.06856779073696    0.28298936690344
H           0.14359643741878    1.67205234588497    1.05548854218679
O          -0.43581301767968    1.62406487402738   -2.29814700685564
H          -0.04173502667323    1.96612762009697   -0.45754261615783
H          -0.26641478292098    2.48562832796009   -2.68110554700754
H           0.30567371808493    1.05269054939205   -2.54600138773950
O           2.50817152964720    0.32405940764170   -0.16918833908032
H           1.96348097066913   -0.10042792995009   -1.58706745518638
H           1.91796793920325    1.09673604373333    0.02540277358185
H           2.27679425457637   -0.33166310883893    0.50018388880334
N          -0.55510183816369   -1.16272366419038   -0.73570614944456
H          -1.15043982906009   -1.93474221016442   -1.01541797889996
H           0.06543501044063   -0.86594321946150   -1.51382935467490
H          -1.18163923528252   -0.34723672902956   -0.39346013131495
H           0.03672532951737   -1.42451531018265    0.08930467594305
