    26
        -50.45490175  Gyration_radius:  2.54746950289 Dipole_moment: 5.620
 S           1.06525528147895    2.07836431476856    0.35959998123667
O           0.59068065743551    2.83039148055650   -0.77311621968153
O           2.29567185541622    1.32630587762224    0.07661407784613
O           0.08019031277719    1.22322783453381    0.98715345096739
O           1.47434445894672    3.16203667141840    1.45794644134429
H           1.66156997104551    3.92511438628200    0.92040303793145
H          -0.04037407486344   -0.14500072199386    1.77038953228921
O           0.02592934613551   -1.04924247853319    2.18187226105082
H          -0.15706311261547   -0.92773542298632    3.11422237584347
O           0.15193245982120   -1.45986205570590   -1.74411581413557
H           0.33559687005483   -1.68019872142913   -2.65797014037731
O          -3.08405173332014    0.21765514472221   -0.36109283173874
H          -3.82392485148912   -0.02992407604159   -0.91756203477161
O          -0.88817744455223    0.86773526020777   -1.82673225445821
H          -0.37000583543961    1.62052441140534   -1.48481284611240
H          -0.24306029031406   -0.51990553940493   -1.76829156050717
H          -1.68294862392441    0.80538999640572   -1.25481274351082
O          -1.75025784036319   -2.05371546128517    0.26556033219561
H          -1.21711112019483   -1.78490099266533    1.02975021027809
H          -2.69048568010000   -0.62121021013266   -0.03650220300253
H          -1.15347488662656   -2.01593402616867   -0.49530889085861
N           1.90404006504896   -1.18490250760185    0.23748205943496
H           2.12837195124967   -0.11633295515010    0.18699067391756
H           2.75067328105852   -1.74211378867827    0.22727030995458
H           1.34826228635099   -1.33900456549171    1.09715692953847
H           1.28841670697837   -1.38676187464653   -0.59209414467260
