    26
        -50.45539232  Gyration_radius:  2.45002697149 Dipole_moment: 7.279
 S           1.67951276536832   -0.51352644413125    1.66023592780336
O           2.00361749726733   -1.51021590313918    2.63011116620739
O           0.50808659291528    0.31002773065780    2.00476180114362
O           1.12246383704966   -1.32637491147435    0.37316519124375
O           2.77649723004861    0.28998204746377    1.16724962863057
H           2.31785573137633    0.77554162752214   -0.25894687176439
H           1.59407753334903   -2.15164358505979    0.40252401878592
O           1.98989788309498    1.11833508894929   -1.13443285070209
H           2.77182311611257    1.35287389726178   -1.63621124179067
O          -1.11083635751786   -2.43893105122848   -0.97168763161321
H          -1.79140861476717   -2.73407244041636   -1.57895270745342
O          -2.02797770298393    1.41439390167156   -0.62833169765003
H          -2.68486388371283    2.10235713353989   -0.73634007515286
O          -0.22622506021628   -0.23511825726984   -2.12994135141420
H          -0.89437581770066    0.38514941621090   -1.80742224494786
H           0.62224585455747    0.10624750176588   -1.79859425823008
H          -0.61809712645809   -1.71888435573716   -1.44361231637525
O           0.12534922324217    2.39295501629574    0.38420683079433
H          -1.20635868870130    1.86724816578696   -0.24987378497704
H           0.30871105543687    1.76291094741541    1.11226398824234
H           0.81802555689455    2.19801957042966   -0.27072024347998
N          -1.63887985707044   -0.70339726201168    0.99494027139526
H          -1.40078860122396   -1.49233342091901    0.33773742670283
H          -1.99146883416955    0.09193848655214    0.41798498817429
H          -2.31205138730962   -0.98958548939895    1.69705463705235
H          -0.73483195487975   -0.35389740071532    1.46283138937056
