    26
        -50.45568710  Gyration_radius:  2.5669137948 Dipole_moment: 1.979
 S           0.98882505928996    0.09081049133018    0.16180636594339
O           0.86789493578819   -1.19033027699133   -0.50888341111917
O           1.19985122747993    1.18659448036510   -0.76581831206756
O          -0.21159196205097    0.34141966416219    0.99904710483143
O           2.19419041572524    0.05938890424013    1.12238878091410
O          -2.54161197425246    0.71225018893688   -1.91669291834289
H          -3.08535397255330   -0.05961058578701   -1.75025544418902
O           0.05020969618986    3.49958474957581   -0.64603853767008
H           0.59590541146876    2.68065636558415   -0.77512000370760
H           0.51719771225761    4.03699506852855   -0.00368049868538
O          -1.82856893285351    1.98964196813296    0.14986316050551
H          -2.19764124878359    1.52286114982691   -0.69660804786714
H          -1.15727718256367    1.26728624311259    0.57705332600459
H          -1.19566279276373    2.72726579157385   -0.17699158954019
O          -0.22736195715514   -0.20575321663504   -2.69427022445709
H          -1.68024066397777    0.37204970530473   -2.29307777927289
H           0.37093131035978    0.54207561134176   -2.78701833975841
H           0.15408809309779   -0.71836910937331   -1.94976606055001
O           0.93080165322158   -1.27255134416125    2.88929884228843
H           0.15462016967749   -0.79221662807804    2.57199395999741
H           0.89051493396681   -2.16544187782291    2.45764928518993
H           1.85805051116803   -0.47755884847124    1.90654135318863
N           0.82836423466371   -3.40803673327006    1.27598624537571
H           0.02613886657409   -4.01351465608501    1.15604451382163
H           1.65949718736366   -3.98041737490677    1.19780588647605
H           0.83822925866168   -2.74507972040005    0.49874236270262
