    26
        -50.47071362  Gyration_radius:  2.4157987651 Dipole_moment: 4.135
 S           0.44673526605918    1.79840484461860    0.82156728326684
O          -0.72975223871910    2.06046677645528    0.00976546635044
O           1.59189805435177    1.33779115443268    0.07399978815694
O           0.13556971348345    0.91226739710047    1.94544418324728
O           0.85794051242340    3.18984104300545    1.45526485100772
H           0.01898610023753    3.54500551690033    1.72797534914441
H           1.26692110902844   -0.28467040026013    1.90204035282650
O           1.98215024630520   -0.89498736692409    1.60741717555479
H           2.59824658266763   -0.30104197592940    1.16373971072343
O           1.44799285033416   -0.13111825494844   -2.14318278530659
H           1.67775334756458    0.52064585604431   -1.45021522074026
O          -1.84642063233960   -1.67771828211965   -0.40613399941901
H          -2.58096583507376   -2.29153582401663   -0.37468639231693
O          -1.11966301305685    0.49230081298505   -2.15314506095441
H          -1.01741390581564    1.17010258695933   -1.45756325428340
H           0.53663412956627    0.13168299271056   -2.41524748149346
H          -1.53072363546703   -0.26935594065827   -1.72311635441102
O          -2.29995214268359    0.27975656825867    1.24058632427929
H          -2.05085296928041   -0.96571169112973    0.26911256866673
H          -1.46773524864510    0.36374310934576    1.74906568180647
H          -2.24229734068374    1.04379077827797    0.64734426845400
N           0.86107825568367   -2.03784208906240   -0.49598808070323
H           1.18775350901003   -2.97132320036708   -0.71854049534046
H          -0.17400197261275   -2.01587802304927   -0.41932869714682
H           1.29778140626197   -1.68494545112361    0.40846779912605
H           1.15233786141288   -1.31967092749781   -1.26464298049738
