    26
        -50.45568719  Gyration_radius:  2.56670955954 Dipole_moment: 1.985
 S           0.50031356070275    0.26918267191830    0.83537304649001
O          -0.15660331749055    1.55167065485186    1.00739619603823
O          -0.32623116262487   -0.84150059948875    1.27015074101742
O           0.90486641977466    0.07781508538114   -0.58044410489410
O           1.80068461233506    0.30043762610839    1.66271502613494
O          -2.55880775774134    0.51694754575154   -1.95236869061452
H          -2.68179682096488   -0.37300624907337   -2.28706278984084
O          -0.16144066974216    3.48243457694803   -0.71176129625139
H          -0.19345351730978    2.84587401399558    0.04919987164775
H           0.66063391019701    3.96821118233978   -0.62290244548688
O          -2.61268250536382    0.31073810889862    0.64706293492513
H          -2.66031724666564    0.45930104229699   -0.95951186392868
H          -1.85228781444275   -0.24806843098500    0.91571447448478
H          -2.40477602543673    1.17373978857135    1.01811221671427
O          -0.23369780146910    1.47140977563321   -2.25817356691216
H          -1.20514862807810    1.11732311329909   -2.21936867163992
H          -0.23593963376734    2.37957891899972   -1.78143153256566
H           0.30384963717135    0.84117029618071   -1.57388575419928
O           2.85303803297906   -1.60600863960256    0.33969798952071
H           2.32580298600462   -2.37847299306105    0.67206828877887
H           2.35305788494534   -1.24824042443588   -0.40591655027444
H           2.35076186099838   -0.44565376678505    1.26650868202773
N           1.04774938398792   -3.33541321370818    1.30140432155445
H           1.18481664490785   -3.68917875022875    2.23979761303776
H           0.58838901116237   -4.05990622941070    0.76420289974178
H           0.40921895592931   -2.54038512439138    1.36342293451378
