    26
        -50.45048645  Gyration_radius:  2.70103755999 Dipole_moment: 6.735
 S           1.76913287363535    1.80005162124584    1.62306684807578
O           2.47654799050002    2.95094368788210    2.07935584061630
O           2.53164334585304    0.88291725975759    0.77142481826228
O           0.63086563043295    2.39309651810154    0.60796964584689
O           1.01305223336060    1.06750588231646    2.62534170609968
H          -0.10780731942535    0.06719073077849    2.26882743712572
H           0.74456394122284    3.32134243705795    0.78350976409591
O          -0.72490928020766   -0.67925838496869    2.00329948336993
H          -0.94559229652883   -1.13401409623540    2.81728131348024
O           0.37335632968777   -0.57803075679035   -2.39213187539057
H           1.03275993867143   -0.26406502879498   -3.01161271697901
O          -2.50850425305714   -0.23574830686361   -0.06355669871495
H          -2.02985728089359   -0.28381740189521    0.77832864412980
O          -0.95647183604829    1.40850679747707   -1.46648128907564
H          -0.41407289893641    1.82907996507425   -0.78289294081186
H          -0.15741946028784    0.23842114080726   -2.10892254970553
H          -1.66733881144712    0.92718518973245   -0.97803164160584
O          -1.53718578024716   -2.38760558215262   -1.53986379115772
H          -2.30849395604458   -1.07239801082451   -0.51717856758337
H          -2.16931866214811   -2.69957472162467   -2.18883479206397
H          -0.88937486200149   -1.84740121991139   -2.01947318578164
N           1.16458715177524   -1.16776270987967    0.13650097062308
H           0.34015121129253   -1.16728612948809    0.77328902901654
H           0.86713390763100   -1.03082521196373   -0.85560617258661
H           1.78331806751808   -0.30847808826878    0.42067545001736
H           1.68923408565828   -2.02997557059367    0.23571527069449
