    26
        -50.44704232  Gyration_radius:  2.69279208542 Dipole_moment: 6.628
 S          -1.01964107749007    1.74707698079389   -2.08724107260338
O          -0.80220766223055    0.34477531978129   -2.45797812907494
O          -0.37847153525923    2.04231185198928   -0.80965108425672
O          -2.39412566611928    2.14770920959118   -2.18361923987183
O          -0.22442279156631    2.60842216120497   -3.16627673927299
H          -0.90792081952338    2.85670129795073   -3.78126953066155
H          -3.08634494775987    1.12570794912623   -0.49854908748625
O           0.60840477712413   -0.52814400552960    2.59477838167852
H           0.66077810023003   -0.54954538838471    3.55043272639812
O           0.38791616521748   -1.14421673935929   -0.89133950183948
H          -0.10149049555718   -0.56460537621840   -1.63194601942025
O          -2.54025987122519    0.93345565781626    0.27220296131680
H          -1.74332946934125    1.46842021275595    0.11180790225830
O           1.58847949977048    0.74003567773036    0.29704270202335
H           1.00067136236657   -0.44763716440895   -0.42520294902643
H           0.97873547831488    1.39444936380637   -0.12045685703704
H           1.27524142767974    0.63461049950382    1.20899640998633
O          -1.35866292472992   -1.34677480705047    0.89029570001586
H          -0.83055893823230   -1.05370207438941    1.65683465673465
H          -1.94997764880714   -0.58532843483217    0.67507244428927
H          -0.37648385943852   -1.33548751199908   -0.17777927560094
N           2.32367562669636   -2.19308567573597    1.35631720170113
H           1.80256225630996   -2.71198271098526    0.65915006835912
H           2.91831078172608   -1.53660460933521    0.86337954511948
H           1.25021799984109   -1.20115864804855    2.24401002252327
H           2.91890423194015   -2.84540304590723    1.85098875370440
