    26
        -50.47250317  Gyration_radius:  2.4873041398 Dipole_moment: 2.881
 S           1.89255466204572    0.25628875655205    1.22317072276634
O           0.62330444922537    0.95698667383615    1.26327123318992
O           2.53172258942692    0.35995283177147   -0.08303148142528
O           1.80929765310508   -1.11750987417957    1.68075480244312
O           2.84141218637887    1.00533991719878    2.24704692635675
H           3.58561139151236    0.41376655191791    2.27338116164410
H           0.71771388137908   -1.96513899822735    0.88774659125501
O          -0.00925807422470   -2.46052748953971    0.42692126365317
H           0.22704774839584   -3.38756894368988    0.48257844593854
O          -0.79780713398752    2.39788531584622   -0.52358503411451
H          -0.31461736056145    2.10886199680418    0.27249200411952
O          -0.89215835189746   -1.19914184322949   -1.83109918608768
H          -0.57100891567435   -1.73781440454789   -1.08331972286193
O          -2.68589573215722    0.39109330033482   -0.47411396996145
H          -1.65715195127086   -0.70666061646433   -1.48275267913821
H          -3.63735248695393    0.43475550355805   -0.37745502189530
H          -2.32802226868849    0.05253166342611    0.39756053726025
O          -1.55961642059761   -0.52306556187032    1.68935532066841
H          -1.21310812123281   -1.38605035780418    1.41897897052372
H          -0.77354756141770    0.05903478206581    1.71052833799936
H          -1.60257652908306    1.84804913818624   -0.53924739295222
N           0.77471963074360    0.84565660236980   -1.94646099815434
H           0.16266140529108    1.60429543217200   -1.51829747917727
H           1.54726050358330    0.65171590139025   -1.24521272520443
H           0.17095939724558   -0.02482902815446   -2.02628862617972
H           1.15785541937817    1.12209275023308   -2.84292199061538
