    26
        -50.45316400  Gyration_radius:  2.76379902986 Dipole_moment: 6.497
 S           3.02810940448949   -0.15381341870661    0.05023296414142
O           4.29313992526718   -0.04497110469177    0.69800380658916
O           2.46375178045822   -1.50423682266513    0.00950937611959
O           3.30151594009310    0.21888810481485   -1.50747854739434
O           2.00810452488054    0.81238309578582    0.45370531306666
H           1.18834174243945    1.12595769089356   -0.92351123982392
H           4.23324061736946    0.03663507598857   -1.56843746163867
O          -0.38162962051934    0.65581331413720    1.66909318619999
H           0.56072514911247    0.84664383012924    1.51041293271196
O           0.63118634239740    1.08884681741373   -1.74113048463253
H           1.26379638447562    1.08833212418215   -2.46183170406336
O          -2.83729854270664   -0.78625320005453   -0.53430915264686
H          -3.75864137009810   -0.85940166707009   -0.78497877471301
O          -1.71318782349637    1.76881512518987   -0.35757487005934
H          -0.87453326218181    1.27269442277374    1.07746721785173
H          -0.98538786991581    1.82142610104711   -0.99119963279832
H          -2.19339090830094    0.95044991122183   -0.57095868869521
O          -2.52494386288814   -0.95101073617191    2.15091166674620
H          -2.80307703154218   -0.91353863482617    0.43770528286929
H          -1.71096550244992   -0.42094460670482    2.21810409264774
H          -3.14091834474426   -0.57487016351491    2.78131066717734
N          -0.03303086039346   -1.12692398593306   -0.33325466273730
H          -0.02696767012484   -0.44127195382048   -1.11105027928072
H           0.99618840284524   -1.43253684986849   -0.19337379486052
H          -0.29759286413609   -0.59346734536864    0.53137167324592
H          -0.68653466033821   -1.88364512414671   -0.50873888602119
