    26
        -50.46021209  Gyration_radius:  2.67669590062 Dipole_moment: 4.573
 S           0.03809357916698   -2.25080956064436    0.80237959095431
O           0.83054135679522   -1.24377770132268    1.49032189147959
O           0.68438895701461   -2.86797365800668   -0.32332804191550
O          -1.28003385216304   -1.70453251990791    0.43912605729772
O          -0.23393662088426   -3.37309917088642    1.88911670137332
H          -0.04396767016574   -2.89457177196838    2.68897976352940
H          -1.34231862623037   -1.57241596540055   -1.27920846184319
O           1.55590036811782    0.65892860219988   -0.14239097321883
H           1.46092315476865   -0.02456802422680    0.56308266238658
O          -1.36128068227710    2.98496982210822    1.33724335723655
H          -1.53546576638798    2.89184100865549    2.27503629048451
O          -1.33546519234043   -1.25226259335190   -2.20537291090025
H          -1.51315524854181   -2.02361173892481   -2.74560613127662
O           1.43567543921643   -1.04365854611581   -2.12345654010119
H           1.72230691493892    0.12919459214214   -0.96455948555752
H           1.38921888884720   -1.82481102347885   -1.53816357182722
H           0.52368118580792   -0.95276498112988   -2.44397704070141
O           1.30744538702344    3.13338779555456    1.01358038877915
H           1.55193449448998    2.25390812686809    0.67342936556344
H           1.79093150874825    3.77111746771930    0.48662743943761
H          -0.40055441593863    3.17277295050458    1.25742758188667
N          -1.07391073678257    0.82409361170643   -0.23534442671207
H          -1.27571062352232   -0.11882620147717    0.19189106881895
H          -0.01027672507203    0.87493952947200   -0.29338621176909
H          -1.48055030777927    0.83282317005040   -1.16803918909861
H          -1.40441475683091    1.61970677988921    0.35459079566078
