    26
        -50.45568717  Gyration_radius:  2.56718151511 Dipole_moment: 1.981
 S           0.94449155589917    0.32376416473715   -0.12645537519250
O          -0.08994148181972   -0.20335355629745   -1.05219014329985
O           1.02715602258077   -0.51452772269898    1.05515637608091
O           2.28284001220282    0.27354189338343   -0.89020619774875
O           0.67856345662302    1.71369447959330    0.19503928826734
O          -2.96989558457976    0.60833503980159    1.20917589469230
H          -3.25546851146269   -0.28891129549517    1.38970897995415
O          -0.97861062865574    3.25478169709380   -1.05535662537675
H          -0.27810766717335    2.78993267489818   -0.52770049422149
H          -0.54688657968330    3.58526781180300   -1.84528498588802
O          -0.69923890863600    0.89648360713587    2.46001291259516
H          -2.14237348969442    0.75329807184966    1.75090732908938
H          -0.05810312730645    0.26819029795057    2.06405013871308
H          -0.34357115801147    1.76054679149418    2.23047924663316
O          -2.21067650334092    1.03856047973554   -1.16758058243659
H          -1.30589518895729    0.45901402255772   -1.16766200199328
H          -2.60898965233897    0.88579171669087   -0.22484801623847
H          -1.86565794781854    2.00416728614192   -1.18484744418590
O           1.77997391131814   -2.00970573210747   -1.90320869936488
H           1.88676440211882   -2.59498543238829   -1.10868342715409
H           0.85949637434819   -1.71567543982201   -1.89109419518317
H           2.25836762318546   -0.62212696638124   -1.35209658255521
N           1.91494577905976   -3.16431734711765    0.50983966056229
H           1.28829997958088   -3.88230793838863    0.85092235452956
H           1.59965337136512   -2.26925425052469    0.88817183459816
H           2.83286397121873   -3.35020433362862    0.89375075513478
