    26
        -50.46365778  Gyration_radius:  2.4472115916 Dipole_moment: 8.570
 S           1.02625873130846    2.13917935657053    0.53973429582438
O           1.42491433398866    1.38357307539253   -0.64188304350491
O           1.26857740284939    3.54186138739094    0.47531319214473
O           1.95554248074283    1.58336024981728    1.73288055891009
O          -0.32299982947553    1.74935245475490    0.95918718547426
H          -0.12287879990316    0.38499176054068    1.69647560173142
H           2.60976801718866    2.27191911013159    1.74182037449698
O          -0.03793141415515   -0.52491599395802    2.10089123495519
H           0.24454109100270   -0.37643592725528    3.00395040000813
O           0.11990656568289   -2.19076713076541   -1.52338171953740
H           0.49430443925391   -2.97203463973281   -1.93026456323147
O          -2.20469850089075    0.91759375721940   -0.70541890242610
H          -1.64058986512033    1.41327605522167   -0.07365815687345
O          -0.31989165560699    0.47783681497587   -2.47438575239834
H           0.37806647642446    0.90758490609692   -1.94198158312659
H          -0.14859483121275   -0.47136519344397   -2.40298570736902
H          -1.64525752439149    0.85658915776123   -1.52380321913931
O           1.79940741520919   -1.09523691176310    0.10397917917262
H           0.84035699090705   -1.80221124528008   -0.93606350966033
H           1.80542548097470   -0.16417980310761   -0.21650679291669
H           1.33905198920051   -1.04762522632661    0.95667849585437
N          -1.78884875122398   -1.42884824296840    0.22342859141122
H          -2.06959351748036   -0.42680220581447   -0.17901956270575
H          -1.23209912823603   -1.25171186590901    1.07775398921308
H          -2.60296271655136   -1.99837692123655    0.42178722140672
H          -1.16977486048400   -1.87660675831733   -0.48452778771265
