    26
        -50.45124293  Gyration_radius:  2.85129109237 Dipole_moment: 7.290
 S           0.25663587714643    2.19646073447098    2.14573021050271
O          -0.44276496697465    0.96589262346794    2.49920782540257
O           0.06530610006504    3.30050381546066    3.02976378963111
O          -0.48472362158913    2.67706563002713    0.75344204093947
O           1.62544834031014    1.93223207490214    1.73081704746153
H           2.09458942472792    1.00458921836534    0.59089602020692
H          -0.80742164672912    3.51486553202550    1.06823359364477
O           2.31532570623202    0.35474684358152   -0.14311344745706
H           3.26260912953219    0.22205008266709   -0.09677685430764
O          -0.44744949625723   -3.46758547649859    0.51141537287894
H           0.20496472510922   -4.16869057453195    0.51948507687985
O          -1.46437007528522   -0.03426976083608   -1.61239316403175
H          -2.27085443532018    0.47752733529663   -1.53641030117013
O          -1.10009194701937   -2.75759938178513   -2.03213295046093
H          -1.86768665442992   -3.10048200281368   -2.49195541128416
H          -1.20090683744366   -1.79101012558609   -2.00700164268429
H          -0.70583825866619   -3.33488271692767   -0.42316900066886
O           0.46689149761842    1.71011080694261   -1.66612763233609
H           0.17783108022317    2.22265344316937   -0.89418526956375
H           1.26520257124672    1.24311787939689   -1.36737850070772
H          -0.73445021153411    0.62539402741307   -1.79014554370299
N          -0.04164817462011   -0.77363203704775    0.64883376843771
H          -0.16466835840095   -1.77619883492649    0.87590414201838
H          -0.69282215382998   -0.53088058609008   -0.11866090696946
H          -0.23201165309421   -0.12252849684572    1.48157500203828
H           0.92290403900812   -0.58945006332441    0.32414673531145
