    26
        -50.45124325  Gyration_radius:  2.85088369756 Dipole_moment: 7.281
 S           2.15778376812448    2.10963136561733    0.61595587518360
O           2.42525906775436    1.13856469384939   -0.43935068197780
O           3.28689842272667    2.83908930238686    1.09547928311379
O           1.72153262844877    1.17402416004924    1.90179057165609
O           0.96009508697596    2.88596273881096    0.33607364806464
H          -0.46426720274065    2.35146609437877    0.07925171428341
H           2.42048610941001    1.43922722937001    2.49022313740321
O          -1.35063616088366    1.91869668779722   -0.11260965325011
H          -1.91514044059110    2.61775129465866   -0.44392798775175
O          -0.34171694628607   -1.82813104125282    1.12995513515368
H           0.35993418796984   -2.18617238361192    1.67548612033513
O          -0.49935097674787   -1.74982185606616   -3.02914888896505
H          -1.10754954664576   -1.56481665629231   -3.74545122629003
O          -1.76007281531892   -2.98796432934879   -0.96050759229099
H          -1.36521627854728   -2.60587443451597   -0.15852688289094
H          -0.99347339256761   -2.27893305440358   -2.37070535790947
H          -1.75967677521884   -3.93847579410024   -0.83907510785757
O          -0.94565046736685    0.47005612301390    2.19268781505779
H          -1.34758658668654    1.00156454276993    1.48525415232066
H          -0.68653806587041   -1.02507191465360    1.61549454278550
H          -0.03643340208159    0.80217607784321    2.26433364616375
N           0.24796206664109   -0.12084763250874   -0.97245869390670
H           0.15860286743315   -0.58899559014934   -1.89146834936331
H          -0.49780035032134    0.58510634643400   -0.84883532083216
H           0.14251941191761   -0.83568548423943   -0.23084984101441
H           1.19003579056728    0.37747354417184   -0.83907007734174
