    26
        -50.45124294  Gyration_radius:  2.85119217461 Dipole_moment: 7.283
 S          -0.62516365128104   -1.98280731047781    2.27367723568439
O          -0.67496906107685   -3.08777212874795    3.17560031921656
O          -1.28714741433850   -2.17641537875673    0.98817726035018
O           0.97111375950735   -1.87484783199389    1.87487908469647
O          -0.92606806434008   -0.67626998754670    2.83755395513124
H          -0.68454870547711    0.70183096109271    2.18746403061599
H           1.27367955116011   -2.62678022624722    2.37308758904582
O          -2.03223637801041    0.80189534794270   -2.77764321400875
H          -2.63320060618828    1.53774476895611   -2.89865885157672
O          -0.52782143954544    1.55389189456207    1.67830229363919
H          -0.96982180190049    2.24069916823341    2.17836179603162
O           1.75728198219136   -0.05755868025540   -1.28501594336487
H           2.24687680958752   -0.87517705370963   -1.38472884761163
O           2.01594964908764    0.60921002243913    1.21776516490067
H           1.25840447922580    1.18056365241759    1.42813888516011
H           1.78270251284609   -0.25639040108132    1.58988570470549
H           1.97802409330174    0.28697442607447   -0.37279454126147
O           0.54751419499003    1.55711101862701   -3.19670054920372
H          -1.14409229124434    1.11862863609891   -3.03957090817670
H           1.06357819521099    1.07701485910048   -2.52716781980089
H           1.00125573497286    1.43365082685197   -4.03159977821440
N          -0.89119904498799   -0.09454983367567   -0.46772097405879
H          -0.88605780562324    0.69381887402965    0.20176719132431
H          -1.54294284572159    0.09480987055289   -1.24944853952634
H           0.06327617884800   -0.19494556748910   -0.85624102639710
H          -1.13438801128070   -0.98432993695641    0.08263046270448
