    26
        -50.47044456  Gyration_radius:  2.46597501689 Dipole_moment: 2.876
 S          -1.75513152759302    0.18435109349567   -0.12284489474203
O          -1.03735723892046    0.38533419595078   -1.36977764436327
O          -2.32535546938609    1.38099637603956    0.43376920452555
O          -0.94269976188956   -0.57291262603060    0.82887695183275
O          -2.98088531122022   -0.78153122285940   -0.44889976783344
H          -3.71199182776929   -0.18276945578217   -0.56292667840668
H          -0.27857840407156    0.22983374620006    2.20380970953796
O           0.26855872348058    0.75736867429817    2.81770455838574
H          -0.27624656521284    0.92207899777213    3.58867740437587
O           2.01912339416880   -2.48395079305241   -1.33162119841643
H           2.37086230436940   -2.35927260789362   -2.21465867556511
O           1.28003879491150    1.74813008063455   -1.14283383232893
H           0.47370792994984    1.37376234771406   -1.53940910210574
O          -0.62425604507656   -2.21765519719926   -1.53816221526287
H           1.03929551485519   -2.53419845989851   -1.43616195432644
H          -0.76572505414669   -1.25449535165902   -1.62827707579866
H          -1.18415539418150   -2.47834358882074   -0.80378153864038
O          -0.03604370313497    2.75588994282547    0.92007403975261
H           0.93090732231541    2.34529251548262   -0.43983637289093
H          -0.93894741794066    2.45529414802154    0.71927467657726
H           0.23500015532069    2.23920525696644    1.69703165400846
N           1.67639309472501   -0.38970174617765    0.28785867924721
H           2.00789897637223   -1.20620548788465   -0.28090865936987
H           0.67127416527142   -0.55883404383834    0.52624106878107
H           2.20570738058243   -0.26732737399008    1.14544749700433
H           1.67860595421181    0.50966057972094   -0.30866584395227
