    26
        -50.46942771  Gyration_radius:  2.44007076467 Dipole_moment: 3.752
 S           0.75284631878542   -0.14733343101430    1.59751453797571
O           1.38114536044366   -0.48548632863487    0.29758256971559
O           0.70388624787360   -1.29345101483166    2.46800140839629
O          -0.57165940281622    0.42195593388268    1.35217098974760
O           1.64098379408159    0.93664896356462    2.25367111469099
H           1.68859797306965    1.69973706359849    1.61971804970382
H          -2.01776586997249   -1.21633314026077    1.63794633024543
O           1.88693878011552    2.82974997796692    0.45811662304203
H           2.82683161806440    2.99283425510250    0.35840735308552
O          -1.09699530390228   -0.62834331147185   -2.55424022300291
H          -0.28312506184689   -0.18975525270874   -2.82863629539108
O          -1.63950182930705   -2.10264385263788    1.64561682896880
H          -0.79917807857164   -1.97626057571004    2.14504727844300
O           0.94858399384363    1.35157346386649   -1.54833491574865
H           1.58528183624244    2.40793845690992   -0.38380756949689
H           1.17139710841078    0.61532577753846   -0.93594171120294
H           0.00617706621804    1.53379046421173   -1.39707783346824
O          -1.70175320610744    1.32831551874177   -0.77529686145366
H          -2.28409273308351    2.04242693092246   -0.51457713032502
H          -1.29705111666349    0.98321207394102    0.06552288621044
H          -1.56892416536697    0.03738297674657   -2.02240320189709
N          -0.27262493110082   -2.25768427487554   -0.60523018910825
H           0.06940611748942   -3.17889648746147   -0.85666238834056
H          -0.69738004683955   -1.76097396424438   -1.43196817761694
H          -0.95204364005283   -2.31216690901590    0.21124905661048
H           0.52001916094927   -1.63156331415108   -0.25638855976778
