    26
        -50.45352389  Gyration_radius:  2.57387150777 Dipole_moment: 4.220
 S          -1.21793461900019    0.02890111169162    0.71221982342203
O          -0.50141414686695   -1.09158402278238    0.15372594211241
O          -2.25242001992751    0.54688419329078   -0.25960091891541
O          -0.32026798099097    1.09474028897304    1.12457934250304
O          -2.05471895696338   -0.41224339109421    1.90984079582064
H          -1.44944617977477   -0.28990290777089    2.73337752886943
H           0.65795097778462    1.65818822841643   -0.05725589405944
O          -0.26874184221751   -0.02894854746684    3.63838339097259
H           0.04273484626300    0.74445912091094    3.15264281642030
O           1.14034451339688    1.95355026378040   -0.86564811581022
H           1.51039987903755    2.81450389933398   -0.66244009595324
O          -0.29844388341839   -0.42208329684029   -3.73000738771270
H           0.17215945523008   -0.28064920514208   -4.55262181538258
O           1.41814209404954   -0.72913005766201   -1.71808305846249
H           0.37562169579600   -0.68750480279386   -3.05941993772341
H           1.61373231687272    0.19175240840079   -1.49976868535144
H           0.77041078313724   -1.01730880460484   -1.05044127021778
O          -1.16848218097477    1.57317212183173   -2.24068314539167
H          -0.29662017238685    1.83412838030963   -1.88063010711262
H          -0.98555865453388    0.83357891119388   -2.87596542687107
H          -1.83643395748893    0.99851209584417   -1.13967199304378
N           1.08027101182285   -1.95220371539313    2.39986372912843
H           2.06972206967232   -1.87341461804239    2.19984432820346
H           0.32056859854207   -0.78230221148204    3.34810609583540
H           0.57543987538771   -1.80012661618838    1.52695599715337
H           0.90298448755596   -2.90496881670694    2.69269806156750
