    26
        -50.45452915  Gyration_radius:  2.51018728504 Dipole_moment: 5.112
 S          -1.57144011137547    0.56716769690633   -0.12928401140151
O          -0.89655903633429   -0.68570579409404   -0.72470411832044
O          -1.51897600780428    1.65988956560439   -1.04446461524590
O          -0.95162081440054    0.84542760290002    1.15334102977066
O          -3.00747151636362    0.10502850663036    0.06403399987349
H          -2.96820030463455   -0.85784497769422    0.42334895493205
H           0.52974984797209    1.55910503479930    1.05366698463560
O           1.47040449523063    1.80572219485016    0.89768993493993
H           1.74590216417458    2.32940563717873    1.65181759077225
O           2.24998758676976    0.12793331326627   -2.62916213910373
H           3.11942233899448    0.38185774385801   -2.94151251324742
O          -2.67863234919196   -2.28195341975085    0.82586188292499
H          -2.41953724361461   -2.69764262038171   -0.00065951570501
O           1.00148369577670    2.32887086047578   -1.82297094691894
H           1.75050580542346    0.96860651029946   -2.48600117109772
H           0.04089584532555    2.20158481066658   -1.74670129855354
H           1.31900380520054    2.37571784748175   -0.90955713752614
O           1.57546222383886   -0.71136801305716   -0.22502259718367
H           0.11860147622418   -0.72643029552499   -0.52492709034136
H           1.91883027903631   -0.56184257289055   -1.14096048986482
H           1.73104117712321    0.12799555041734    0.24254777920893
N          -0.40057554857780   -1.79743027058672    2.07071009524394
H          -0.51654072118660   -0.78801164542984    2.00153782648513
H           0.42321128075324   -2.04238548921207    1.53397550929238
H          -0.22971928591228   -2.03447743314050    3.03932673233630
H          -1.83522912815886   -2.19922032664841    1.36806933736140
