    26
        -50.47071363  Gyration_radius:  2.41599128141 Dipole_moment: 4.134
 S          -0.18754340636167    1.35666556684235   -1.49587750506887
O           0.66635611430736    1.91255096378572   -0.47390683382522
O          -1.55245798452560    1.10826089722675   -1.06194383957567
O           0.40346350653997    0.16817295513893   -2.11425341462742
O          -0.28672728339717    2.44873304660479   -2.63801735144658
H          -1.02911490026226    2.14286393571506   -3.14748206776799
H           1.85329817057991   -0.05441772969116   -1.36598012631448
O           0.42155880182822    1.41067120844687    2.13021161197936
H           0.55450975921464    1.81992106704320    1.25118533052874
O          -0.83526077047337   -2.21547425351184    0.88853415909546
H          -1.12208378772508   -3.11544216266207    1.04694552391021
O           2.60337190076761   -0.00586231742585   -0.72875431308055
H           2.65545826898072    0.93652837836978   -0.53333611935253
O          -1.92900477032245    0.37485833351885    1.50998905696699
H          -0.53198013696122    1.15711343925055    2.12601825330703
H          -1.90933355629663    0.72788416185524    0.59979594460928
H          -1.73902251682788   -0.56953177046221    1.43226987585869
O          -1.50315938116579   -1.51978056582935   -1.52360443705239
H          -1.08183829403475   -2.00893382149872   -0.06084975287363
H          -2.02367260443855   -0.72059605655437   -1.34857846605292
H          -0.68637326171736   -1.13878433564833   -1.90397718061771
N           1.46457973250198   -0.86990941164652    1.49485778946712
H           1.98261242388436   -0.62863319623649    0.59670673346060
H           0.65542934106938   -1.48399790871886    1.28061714565690
H           2.08429691785756   -1.30894803763535    2.16628268241248
H           1.07263771698234    0.07608760373055    1.87314732041753
