    26
        -50.45484852  Gyration_radius:  2.487229757 Dipole_moment: 8.986
 S          -0.77280775943511    0.52566114194961    2.00274959662461
O          -1.88547739404588   -0.01313590633179    1.17701585874811
O          -0.89236765495192    1.92630624672673    2.24984910301781
O           0.50938392719567    0.33201207168829    1.05035532739165
O          -0.50396371311792   -0.34031015845464    3.12775479418320
H           0.46111261672828   -1.54428156689822    2.67921042894095
H           0.58759703614462    1.16778617770176    0.54672077842320
O           1.03136352803228   -2.17624480249906    2.16122731144138
H           1.79621119071676   -1.65203595816104    1.91132096590184
O          -0.15974053607789   -0.73327463485660   -2.10163264686777
H          -0.58398787609680   -0.97583281515393   -2.92638111237963
O           0.84697123206255    2.48868437256463   -0.49149406297527
H           1.38519459529320    3.10407952517796    0.00804415952795
O          -1.56315107302342    1.20153648032526   -1.12165634004281
H          -1.83729374919322    0.84047703035404   -0.24673709583535
H          -0.98104408331688    1.94542113004051   -0.92136891525656
H          -0.70228273100190    0.03860578888487   -1.73613203902341
O           2.08307799786090    0.86482587699387   -2.22618649030854
H           2.10280322203715    1.12400253675652   -3.14916711630008
H           1.43132169687371    2.00682029740031   -1.11911963646065
H           1.39552868399206    0.17638832942006   -2.14186296860225
N          -0.75183428059757   -2.09555985720644    0.23264374445787
H           0.03876695534645   -2.24296058492553    0.93413883157282
H          -1.31108169199561   -2.93436702664520    0.12295966158166
H          -1.33634018714319   -1.28102729542731    0.65281551401365
H          -0.38795995228633   -1.75357637941619   -0.67506763177868
