    26
        -50.46085926  Gyration_radius:  2.53238437901 Dipole_moment: 4.728
 S           0.18749143668846    0.80314886921953    1.91951234364588
O          -0.23438996320967   -0.58609419369683    1.66892041714611
O           0.30568993141875    1.54676313846628    0.68915075237408
O           1.38260257723442    0.83859797814752    2.73697048581352
O          -0.97511835106292    1.46574618510003    2.76139861361865
H          -0.87800045941459    1.07946203029265    3.62696067185859
H           2.59371340243398    0.96340132915785    1.57100200720052
O           2.99217146413038    0.94777642532702    0.67041226357868
H           2.50550850021412    1.63315875563259    0.19915914117468
O           0.25239080727060   -1.13798910308306   -2.15042712677354
H           0.52814728900583   -1.22118191723483   -3.06371789027364
O          -3.18985031872425    0.57736785869573   -1.26394670811288
H          -3.87018628282280    0.27217486244045   -1.86514936401957
O          -0.61956605061678    1.23957105388454   -1.80321386971653
H          -0.29208689365907    1.47211943185260   -0.91286999606006
H          -0.09414462380062   -0.18396524665404   -2.05055870485969
H          -1.58966517576825    1.16560396859730   -1.69531438478934
O          -1.90117352646784   -1.54974036870185   -0.25443467067676
H          -1.42080037042346   -1.21710849247755    0.52457263041217
H          -2.85061402709082   -0.22069575898284   -0.79936931018886
H          -1.24054044406198   -1.63949089971013   -0.95327382052276
N           1.70218789058253   -1.27437731373821    0.07791619080525
H           2.34463622328949   -0.43437184345449    0.20193304631479
H           0.91519465842810   -1.12204428523626    0.78031134791551
H           1.25627298431447   -1.27270778778959   -0.87576527720930
H           2.19012934211628   -2.14512465603530    0.25982120130371
