    26
        -50.46053983  Gyration_radius:  2.59418206636 Dipole_moment: 3.608
 S           0.75188992444275    1.77298717675616    0.77157915602583
O          -0.47879997099296    1.00894924029368    0.67715708818181
O           1.76564957311343    1.27470951663202   -0.14637441223211
O           1.24057601441213    1.90523088821792    2.12606827577501
O           0.37665595833612    3.24599344662727    0.28298854324803
H           1.06130609663929    3.79498626585264    0.65432165470225
H           0.94781559308958    0.35414004861479    2.70381895956935
O           0.71269951631481   -0.60002840783326    2.74803693173735
H          -0.23455924030104   -0.62975222556324    2.58396294165082
O           0.18942826352222   -2.75636912557772   -0.83393078970949
H           0.01001843001855   -3.63839318922496   -0.50504767614175
O          -2.69056496144907   -0.29631814290439   -2.37068993063539
H          -2.28047664286624   -0.76586688953655   -3.09921445219970
O          -0.96707072792915    1.73348155935523   -1.84952028934608
H          -0.75037859089362    1.47137944288511   -0.93661153918862
H          -2.16624492012176    0.52032353759778   -2.25391013106174
H          -0.98757225431587    2.69156025818529   -1.84145984206420
O          -1.77633342909622   -1.28074815835763   -0.02190314317003
H          -1.37087316840795   -0.45917603683713    0.30087250465868
H          -2.27799543154976   -1.00635481164860   -0.81889782418723
H          -0.61019514042334   -2.20362053214050   -0.57742442254609
N           1.92655099959266   -1.24799565800646    0.47503330827582
H           1.92331260317565   -0.26082585831742    0.08034466484945
H           1.30999586394078   -1.87891106735550   -0.11427102235867
H           2.87566694632846   -1.60230550876055    0.52741312240568
H           1.49949870540670   -1.14707577899257    1.43765832375456
