    26
        -50.45406798  Gyration_radius:  2.5271277264 Dipole_moment: 5.862
 S           0.93836682325791    2.05107141145896    0.42657490786421
O           0.71539288582287    2.83267700652716   -0.76018002298407
O           2.22802832447907    1.34704010948533    0.42518373614060
O          -0.13321969355137    1.14334826872367    0.77992180933003
O           1.03304517497786    3.10100651962698    1.62799468115097
H           1.31228224457973    3.89002264649789    1.17465751837146
H          -0.32830393765770   -0.11021782607783    1.71117047763262
O          -0.30419385364569   -0.96079327815718    2.23098435751236
H          -0.59145170634488   -0.73644086266120    3.11670701257392
O           0.43219630054416   -1.66150536334800   -1.51348783718391
H           0.41308580925356   -2.30428252179692   -2.22315753384461
O          -2.91264191734401    0.20258670801121   -0.94869078243038
H          -3.51593326813732    0.15122424805223   -1.69149062948761
O          -0.63841393411678    0.95245871679544   -2.13478410441348
H          -0.09850461740000    0.16696996761607   -1.97602032648688
H          -2.08667306291508    0.61016769186150   -1.30381650962323
H          -0.18729800868503    1.69301584461176   -1.69164621816471
O          -1.65957653876736   -1.96290453232936   -0.04117219236018
H          -2.22119431947392   -1.20265253277932   -0.32470578583508
H          -0.41907675450102   -1.79786708278376   -0.98296378770690
H          -1.34346045250870   -1.72361981541325    0.84192738674214
N           1.89364274591008   -1.16642938396108    0.66190939270370
H           1.45304081092058   -1.45223657786528   -0.24444115105716
H           2.08944058175245   -0.09339936451223    0.57773202661036
H           1.18699488295545   -1.28513308658398    1.41137986877038
H           2.74442548059695   -1.68410693100007    0.85041370617443
