    26
        -50.45059459  Gyration_radius:  2.4631519082 Dipole_moment: 4.140
 S           1.40986348915556    0.60711114378580    1.28365144193261
O           2.25240909197363    0.72548141005861    0.00263188052578
O           1.23692152573818   -0.92782008560966    1.45174375972220
O           2.09319027443986    1.12900947399157    2.40696647580540
O           0.10155471860396    1.17438197409986    1.01839263765154
O          -0.98458280688090   -0.49688935115137   -1.96763391731426
H          -1.62795651683057   -0.72430114062410   -2.63941689894393
O          -0.21918130781874    3.41003262870065   -0.41885545584364
H          -0.25198532744862    2.68565768546148    0.23475469697300
H           0.28796178442224    4.11712528893955   -0.01718967402550
O          -2.11646612768754   -0.21227799047516    0.31248193421450
H          -1.46439210739421    0.40622198362735    0.68358479641768
H          -1.50007940999832   -0.37237183196502   -1.10393328414684
H          -1.98507969643652   -1.04991887037761    0.81496842303131
O           0.85778948557393    1.49258943969850   -1.92980585739516
H           0.13408333513380    0.84218611432079   -2.03484734134876
H           0.43780019607810    2.30596584265597   -1.57258149353087
H           1.68496093795242    1.05838426365821   -0.81055455645912
O           1.15004546108117   -1.75745682306387   -0.97641197752430
H           1.89798624911790   -1.31162641586293   -1.38377749538687
H           1.18430237736043   -1.31422691677475    0.52400544039811
H           0.34180585050493   -1.39417263667196   -1.40236410468152
N          -1.36989876151608   -2.41695998109965    1.73204726326982
H          -0.45975054157650   -2.05393087987159    1.99743463223128
H          -1.21745421807780   -3.27428196971691    1.21588291336783
H          -1.87384794547390   -2.64791233573205    2.57882576106190
