    26
        -50.46333844  Gyration_radius:  2.64863713521 Dipole_moment: 4.732
 S           0.59925016184057    2.25797457111046    0.01006855253455
O           0.86404749330873    1.69353403253434   -1.29361438834001
O           0.43692345653888    1.19550583041979    1.01578715952501
O          -0.45036778268378    3.24353143086137    0.05808511329682
O           1.92972273669596    3.02487305709630    0.44783126132179
H           1.57305288615009    3.80816497874929    0.85411771108410
H          -1.58153103669589    2.58740519616353   -1.05211045782418
O           0.53714606361951   -2.84707255481286    1.96657403506200
H           0.39118697896256   -2.60281448913588    2.88210901060586
O           0.54687632135640   -0.88306196636272   -1.86746452535603
H           0.77397613491582    0.06534889608390   -1.93921176235101
O          -1.98930313727733    1.98951985085453   -1.70923905865397
H          -1.34189141999646    1.92907701004199   -2.41665068281165
O          -1.50324009630363   -0.17714278479489   -0.24877083145513
H          -0.34471988370900   -0.85931702008910   -1.46580550691080
H          -0.90403309161407    0.31232587147819    0.34485342265595
H          -1.92525502581508    0.52255227800582   -0.79546131205017
O          -1.85557982737832   -2.61812394833403    0.83300160037487
H          -0.35853769925355   -2.85608264472849    1.54987807473251
H          -1.85705823705952   -1.69906284522216    0.49787569866679
H          -2.09808754381955   -3.17420719522887    0.09095182366625
N           1.74189042159876   -0.99562225326914    0.45681772145236
H           1.36094443368388   -1.76389095691024    1.06771430723255
H           1.38090405327877   -1.11894935927073   -0.54296939367482
H           1.31934269715251   -0.07313773623829    0.77035118209724
H           2.75434094254557   -0.96132725909037    0.48528125512474
