    26
        -50.44129354  Gyration_radius:  2.40333870703 Dipole_moment: 7.437
 S          -0.50281807300047   -1.99085563820813   -0.97174643938783
O          -0.80705301059650   -0.89481619753203   -1.88884326217509
O          -1.29336992322344   -3.16477065943554   -1.15010605746624
O          -0.91229471186537   -1.40376074993420    0.49127709355289
O           0.93279920035181   -2.18715098381373   -0.82894738346607
H           1.38785684740993   -1.67178290212894    0.53791919186931
H          -1.85123379929897   -1.55585618024422    0.52913944484688
O           1.63609124073549   -1.35424389167159    1.46264382706914
H           1.36788117821804   -2.06619641945907    2.04689089301272
O          -2.18076061028857    0.70731074080807    1.70932637637578
H          -2.61255570343066    1.46016391317762    2.11703046114748
O           0.85802872243611    2.16898599179574   -0.10372882674933
H           1.55736089474361    2.81224631970593    0.01704166657293
O           0.35733491262544    0.75242784786630    1.93441090350891
H          -0.66195172492113    0.60842721994305    1.90324125564262
H           0.84598066631364   -0.16482179186853    1.74595670340945
H           0.57646731987210    1.35612016373634    1.12152746205232
O          -1.80095766593997    1.27186377020080   -0.79033044107950
H          -1.01118680989455    1.82560686741437   -0.76405656272469
H          -1.52516661943385    0.45338561584155   -1.26670942431987
H          -2.15756773122221    0.88913696008759    0.72285191514353
N           1.61927731585002    0.39671820248824   -1.77381452906741
H           0.73544695944307   -0.09764443254945   -1.95091899210211
H           2.23787696891829   -0.30237339331301   -1.37833830046529
H           1.99741338967360    0.68423125097589   -2.66779468277439
H           1.20710076652083    1.46764838612312   -0.80392230242134
