    26
        -50.46306625  Gyration_radius:  2.54525939561 Dipole_moment: 3.924
 S           1.16822591704932    1.89392191315338   -0.33493943620460
O          -0.10091407437173    1.39521073932701   -0.82737789654578
O           2.25091782703582    0.93635805421565   -0.55897879054296
O           1.11625113679246    2.32585161352363    1.04719069296485
O           1.50981015755466    3.17250724177291   -1.20006983191122
H           2.22476530947837    3.55229371342396   -0.70042737734318
H           0.62168727388359    1.23086134473977    2.21768789164242
O           0.35658495259569    0.38781348083117    2.65351122903178
H          -0.52950712629893    0.19973528968998    2.31003400240846
O          -0.23393888086338   -2.29395316145199   -0.08068717283757
H          -0.76883370127000   -3.08128839365527    0.02611085631238
O          -3.24003796736563   -0.62090797995488   -1.31551201850677
H          -3.72066023309378    0.11774129097408   -1.69074332989055
O          -1.55811176191104   -0.17155339116098    0.72339913254417
H          -0.78850634671875   -1.53174904101695    0.25087465356626
H          -2.36527153805095   -0.31524897300758    0.18434406939417
H          -1.05531522353620    0.50290415091027    0.21478816183788
O          -0.78910994015088   -0.69512801173373   -2.41724762385711
H          -2.41935339646328   -0.70965093164053   -1.85581161483503
H          -0.48001063826201    0.13981705216638   -2.02151808597609
H          -0.37750319053129   -1.39315226668221   -1.89215490528165
N           1.85743455594149   -1.03567949593076    1.06114717541740
H           1.21887804043631   -1.71028533499536    0.59645884069429
H           2.69287368278428   -1.48983320370478    1.41249071954227
H           2.10472643974139   -0.26478922130254    0.35753738634123
H           1.30491871573148   -0.54179645859549    1.83989326202862
