    26
        -50.46306573  Gyration_radius:  2.54562944006 Dipole_moment: 3.921
 S           0.73543558234964    0.76883382307763    1.98390230930351
O          -0.56197786260960    0.72309106520379    1.33853188582384
O           1.74343552882071    1.39818231579936    1.13110879697344
O           1.17898120703208   -0.52214363856882    2.46978490101746
O           0.56963035300197    1.70118631138562    3.24999889826685
H           1.37854200511157    1.52735956131252    3.71950104117788
H           1.30103342880853   -1.79334683387066    1.38263132510868
O           1.31944406828131   -2.29925640569531    0.53721916196635
H           0.39539864865518   -2.33221970484659    0.24823911661926
O           0.00104924914594   -0.02171592696023   -2.30748199618133
H          -0.35954713005796   -0.33260752688514   -3.13854509393395
O          -3.41015877200004   -0.06267990871132   -0.99289618926342
H          -4.07623584997229    0.09549978694554   -0.32303830276690
O          -1.58983725462573    1.91187387902428   -0.87545638573681
H          -0.93453982432874    1.58835348691904   -1.50661389787461
H          -2.86055688511261    0.75602658185893   -1.02408809551209
H          -1.24169930984871    1.67079609809981    0.00197285368816
O          -1.12482021480584   -1.27784486364162   -0.29314798024959
H          -0.45901247038414   -0.54352550732446   -1.59004087986621
H          -2.05786255104731   -1.09872447001353   -0.53817577537431
H          -0.93505329606548   -0.61143889111884    0.40418349915196
N           2.22325433214300   -0.24760881061225   -0.80016572719468
H           2.09342508713868    0.49745757831938   -0.03961629063358
H           1.96877623938603   -1.17998867767696   -0.32951471590587
H           1.53001617576241   -0.07159917746215   -1.55335465046920
H           3.17287951561412   -0.24396013429945   -1.15493780801242
