    26
        -50.44129345  Gyration_radius:  2.40323046535 Dipole_moment: 7.442
 S           1.25117088185112    0.53965940253720    1.81856773374506
O           1.48875613803060    1.21129321585797    3.05438961552891
O           1.76764803100961    1.22204809530426    0.63417829447444
O          -0.36412906903671    0.56108274114198    1.61024088665842
O           1.54260041587603   -0.88644731595125    1.78496350654205
H           0.26185864850119   -1.66414015116682    1.47283898855206
H          -0.61109025560386    1.42319499518932    1.92967181123060
O          -0.61229396358900   -2.13776889944740    1.30266013652217
H          -1.05911810635843   -2.14097994119774    2.15155948439314
O          -0.19559860647433   -0.53837364798814   -2.26353201944449
H          -0.27886293744085   -1.16600401247747   -2.98224806039995
O          -2.33842583347193    1.64573772780035    0.03785587134172
H          -3.01286617240576    2.01986789950606   -0.53185824941776
O          -0.03640396399621    2.08585687636989   -1.06561169184457
H           0.67625238595368    1.87228477716000   -0.41797213630581
H           0.01429841543142    1.39114212775793   -1.73335844662983
H          -1.45339027079061    1.93504820003447   -0.33618294050633
O          -1.89443393218871   -0.82377319370354   -0.40847189816731
H          -1.22094290730623   -0.72368653298834   -1.18971444675235
H          -1.37062202501669   -1.33534080739971    0.35228470065133
H          -2.09781542936467    0.13617046875451   -0.09597690637890
N           1.98707395968889   -0.96846029769140   -1.01501325839219
H           1.94599701451014   -1.75166750029492   -0.37258614076804
H           2.85373100379387   -1.03055961310459   -1.53450665069369
H           0.71794758254236   -0.74234678681567   -1.78529906096924
H           2.03865900588171   -0.13383782714946   -0.41687911293976
