    26
        -50.45267738  Gyration_radius:  2.74610399596 Dipole_moment: 5.945
 S           1.90637139568388    1.01886505337229    2.04287590545651
O           0.67369393027442    0.52807575516075    2.66258982338118
O           3.07054662576934    0.93195372548193    2.86082591511222
O           1.64502740861663    2.60713795744181    1.82134547190415
O           2.03179301607468    0.50548439498396    0.68012788885619
H           1.15110799603900    1.52783405796071   -0.24647272343348
H           2.11147207510465    2.96498279318957    2.56926004827438
O           0.42845839409936    2.05953999161675   -0.66505188071119
H           0.54413031302456    2.94319933489943   -0.31087371395748
O           0.86678363967433   -1.51489682364521   -0.65386734998837
H           1.53923295533125   -0.97096136854532   -0.20434609782980
O          -2.60422560045637   -0.76284680944556   -1.36950010351176
H          -3.28138363527713   -0.93456137071839   -2.02496069358965
O          -0.17757118739571    0.04901822211454   -2.55119675505756
H           0.07114566253994    0.90882251544661   -2.18796993005585
H           0.68996425072647   -1.06029234295253   -1.50954697603637
H          -1.09018316152878   -0.11622508840898   -2.26064049245958
O          -1.38877572217168   -3.04228453599134   -0.47397564708492
H          -1.36760492684660   -3.75071942849048    0.16989954021278
H          -2.27251070184571   -1.63570324399882   -1.08937382543611
H          -0.47218472654543   -2.73635439597121   -0.58352205384164
N          -0.85542044309412    0.09118226842421    0.67244280600645
H          -0.70122694801139    0.94691303877830    0.10570705857455
H          -0.34488071320266   -0.68506535471571    0.18107368293529
H          -0.32921932350209    0.24739628873512    1.60421897135310
H          -1.84454057307452   -0.12049463473761    0.76093113091898
