    26
        -50.45267832  Gyration_radius:  2.74618240474 Dipole_moment: 5.920
 S           2.39577156227999   -0.49968735138958    1.68814148637530
O           2.38946957832781   -1.35942471722851    0.50277103942682
O           3.68860854994775   -0.18150486627891    2.19728567201886
O           1.67911520990289   -1.39205477820841    2.84117917105232
O           1.47520325988934    0.62157814401106    1.50989412671951
H           0.00376817454487    0.03902447263787    1.92897645179276
H           2.44166434499404   -1.70903729651470    3.31346540562006
O          -0.84601517744055   -0.46588868842882    1.98505321436553
H          -0.72012205672295   -1.06738766192652    2.72126869836358
O           0.29425017645911    1.72597503565485   -0.63506776836420
H           0.87119740462083    1.60337517242417    0.14099989855872
O          -2.26768771331721   -0.45110454577745   -1.97470820662755
H          -3.11020607786753   -0.41002755392267   -2.42880243162200
O          -0.33034413213899    1.03614778198377   -3.20103700317333
H          -1.64485403035528    0.07013836800370   -2.51449539715436
H          -0.02782459434144    1.50928031343530   -2.40705536565823
H           0.40021269197842    1.04205315646022   -3.82012030441362
O          -2.19352652383521    1.29458010169862    0.23686620416091
H          -1.98621600648431    0.78337784221033    1.02979753496094
H          -0.61244143489546    1.85188117475516   -0.27156988602711
H          -2.38301026409411    0.64777594625840   -0.46343952467150
N           0.08316523581830   -0.96484278024406   -0.50435503635377
H           0.14134887367953    0.04992665125420   -0.77217774719159
H          -0.30176409903534   -1.52151546269956   -1.26128358601271
H           1.07752324094032   -1.24288858456958   -0.18258429307338
H          -0.51728621287610   -1.00974989361872    0.34099764695554
