    26
        -50.46163608  Gyration_radius:  2.55693164059 Dipole_moment: 2.238
 S          -2.29565293068868    0.00840200614274   -0.39359556629945
O          -1.62382840353969   -1.27346494418892   -0.60202149273751
O          -1.56124642219442    1.07789977017463   -1.02820553708862
O          -2.62144156570437    0.23374225138279    1.00225982911567
O          -3.69631712675577   -0.09149923715879   -1.14146132940437
H          -4.24501036057906   -0.50903257495078   -0.48522631216651
H          -1.25165164770397    0.29067086459579    1.82787799728978
O           1.92143691381910    1.37942524104298   -0.72052988818278
H           2.38905403183237    2.03347366395556   -1.24049431753527
O           1.83348017815222   -2.64160028646917   -0.24640426351020
H           1.11016717948189   -3.16933845720164    0.09866928281080
O          -0.39621823752839    0.41563934773307    2.31358593438714
H          -0.61500475761394    0.38465538294666    3.24645200838464
O           2.01318423495810   -0.54362529343910    1.34672911030342
H           1.16105742310625   -0.29145898034718    1.74198400460496
H           2.22648215803047    0.16651027897997    0.72597347706286
H           2.01930066894354   -1.95512414334746    0.44399411871401
O          -0.01112457114621    2.51611887660236    0.55557928100518
H          -0.69989578748181    2.15964422929665   -0.04437141449948
H          -0.08837212594282    1.97878025543659    1.36046423450246
H           1.20768303635792    1.88389036084774   -0.21838861525300
N           0.65278539576901   -0.80181279406411   -1.73545691982940
H          -0.32881025363083   -0.91682344371781   -1.32387925037396
H           0.61521917570366   -0.85062009412763   -2.74714241806776
H           1.06478297564279    0.10664575511627   -1.42278695446628
H           1.21994081871725   -1.59109802523347   -1.31360499875989
