    26
        -50.45454419  Gyration_radius:  2.42331350861 Dipole_moment: 8.703
 S           1.56033389640596    1.49029610080037   -1.00553061031036
O           2.22168113138910    2.64489500176648   -0.48541039451272
O           0.10592882399367    1.51083807049854   -0.66625669222442
O           2.12729872526102    0.21977795277279   -0.21687616457929
O           1.74288192045402    1.14772573061718   -2.39046055985615
H           1.05675393978951   -0.29685410235334   -2.20853401343784
H           2.03048839476652    0.35948017247962    0.73134827356788
O           1.23575539575216   -0.38389356591360    2.32058871213926
H           1.83338686777593   -0.86685592609086    2.89187952240605
O          -2.45975110682366   -0.76480667832046    0.57040988278263
H          -3.38461656223347   -1.01167112011626    0.58383068255631
O           0.65204047502589   -1.19541222299629   -2.10021629540837
H           1.27232331704091   -1.80131006267359   -2.50916773202372
O          -1.77295518926307    0.02529492615493   -1.78578812680626
H          -2.25824109133055   -0.47395166629008   -0.37685493974112
H          -1.15201331943870    0.73430244021586   -1.51227270134934
H          -1.18018949589236   -0.63770711166981   -2.16947448998388
O           0.12807241020477   -1.91704939937452    0.52050166232038
H           0.87821931792209   -1.04680239457331    1.66077503460328
H          -0.81793023618836   -1.71669945211224    0.55472445446323
H           0.42572007886345   -1.64295536174841   -0.37040427694733
N          -0.86649571473181    1.13865524234018    1.63108312359251
H          -1.61353545048722    0.44806369686679    1.40460791159348
H          -0.40610167813310    1.39198770746601    0.65252195449880
H          -1.23168300262762    1.96550950599915    2.08833352032738
H          -0.12737184749690    0.67914249625524    2.18664227232932
