    26
        -50.45267825  Gyration_radius:  2.74597220418 Dipole_moment: 5.923
 S           2.08712847059950   -1.84953611568777   -1.03012105209869
O           2.77946817214983   -2.54611941370381   -2.06324479389284
O           2.65723168702696   -0.55044742323294   -0.66713842703489
O           2.26423064450320   -2.75829117836407    0.30488908913147
O           0.63651358510534   -1.74687563924937   -1.17708066781006
H           0.04012172003101   -1.89858241793466    0.33996798499405
H           3.03958757687125   -3.25800903459539    0.07227127011623
O          -1.32903614988322    2.26484098871299    1.53314221886976
H          -1.96258036737371    2.79952895420528    2.01327291833435
O          -0.19041501964712   -1.77741778068975    1.29513484049982
H           0.35254622711458   -2.41909804960606    1.75677808402639
O          -1.05009486453504    0.31773459736717   -1.50545051630779
H          -0.53312068449721   -0.48977692320043   -1.68103615361809
O          -1.07677658210770    3.01432539292274   -1.08335371771683
H          -1.17756538437754    2.12690747125407   -1.46819339459299
H          -1.28374060457755    2.64200728690628    0.63508072242732
H          -0.59492425431718    3.53883894768487   -1.72343689533699
O          -2.44982126570995   -0.18767869503997    0.71286035240892
H          -1.76105727148868    0.04432835469245   -0.88107909297214
H          -1.91266051966025   -0.90846647304013    1.06636880945329
H          -2.14377096569456    0.62260494701542    1.15377475931760
N           0.73070660018938    0.63749533869086    0.50178265929891
H           1.63461763762284    0.25239284248195    0.04979949679183
H           0.03659442522063    0.73381111219148   -0.28167861077844
H           0.37211410854869   -0.11611326389663    1.11878633188557
H           0.83470309884845    1.51159619411037    1.00790378459764
