    26
        -50.45454419  Gyration_radius:  2.42321707675 Dipole_moment: 8.698
 S           0.83137812222668   -1.68497241183096    1.46079558730217
O           0.96887956351641   -0.20405113362668    1.32341898348043
O           2.11332185859978   -2.31159930529984    1.53154083059613
O           0.15171629700093   -2.14303880124679    0.08759694021409
O          -0.15519528062749   -2.00210736702958    2.45812693515239
H          -1.33344494822891   -1.27027570608746    1.64074895922263
H           0.74709065876493   -1.95274040331737   -0.64547244583698
O          -2.06793209138536   -0.83844447725011    1.13391817655727
H          -2.77536146338666   -1.48520640907177    1.11668350483220
O           0.88093325479729   -0.98503153196089   -2.30495349575557
H           0.77237175445964   -1.51243411896607   -3.09665559033998
O          -0.45487908837536    2.52063835889474   -0.63410959960454
H          -0.69255066156934    3.44686592310324   -0.67994383155530
O          -0.94025121353220    1.58207355788995    1.71788903831463
H          -0.16972679303433    0.97762060637238    1.78057820681025
H          -0.67559274822085    2.21805719372628    0.30513541213158
H          -1.68592621626079    0.96728083996197    1.65399384122539
O          -1.38706157202242   -0.03479843159771   -1.42643487031850
H          -1.22866144938153    0.90543485481730   -1.26182576812356
H          -0.03578747929545   -0.68281602583960   -2.03887074084460
H          -1.58953345177775   -0.42714605384309   -0.55322959072932
N           1.77615431230627    1.00433093728021   -0.73797653654268
H           1.51573795209009    0.44158233586119    0.18369041988231
H           2.70798446487293    1.39671670908923   -0.67590807395288
H           1.68514463778255    0.33530950281468   -1.51907820539429
H           1.04119159069270    1.73875135715298   -0.81965806672313
