    26
        -50.44412418  Gyration_radius:  2.40818904899 Dipole_moment: 7.592
 S          -0.19135732747426    0.80946236469231   -1.83146326881681
O          -0.87203918088233    2.07980314401885   -1.73822805960008
O          -0.49453173832699    0.02607082365376   -2.99340169241556
O          -0.74148733456063   -0.04788278547146   -0.55891986691617
O           1.23360703059328    0.89387226170716   -1.50468517040475
H           1.34074485712957    1.13836841848421   -0.02766388690179
H          -1.67538350178641   -0.17048429729813   -0.70554140327384
O          -2.18596375174377    0.51595437300915    1.82283395892462
H          -2.57829017856421    0.79400365773991    2.65244674487869
O           1.44278647562512    1.25295082087397    0.97648739312327
H           2.38544038691619    1.31456415409956    1.14014138617023
O           0.24458036699807   -2.65987437277927    0.52715977569274
H           0.92471659810290   -3.25734066981379    0.84322470988458
O           0.05689906138077   -0.64094691353122    2.00477602242454
H           0.09382295899258   -1.47554522142715    1.36043511085911
H           0.64367126571868    0.08496321486779    1.58641376116740
H          -0.90503196463956   -0.25221736300105    1.93288001763590
O          -1.04420764259111    2.60025848334641    0.81029559739662
H          -1.83353256942269    1.35252697314604    1.38187897957997
H          -0.11667783245888    2.46411947428264    1.04069895211289
H          -1.06512760205081    2.52035250647143   -0.17457075699836
N           1.12789960756689   -1.88956759997638   -1.78905769543074
H           0.53353315659826   -2.35509560846693   -0.40912834609489
H           1.75974463817681   -2.46594054603258   -2.33264517403542
H           0.34025803937822   -1.64329851995350   -2.38658898874664
H           1.57592618133140   -0.98907675263321   -1.62777810022273
