    26
        -50.44412405  Gyration_radius:  2.40814203029 Dipole_moment: 7.592
 S          -0.00904952176111    1.97570526114861    0.37794963906465
O          -1.36218326547093    2.42651125005182    0.60493214334012
O           0.84488558956313    2.89669017900448   -0.31383153305729
O          -0.16352135331519    0.68535290759014   -0.60619450677367
O           0.59426663631909    1.34741702589654    1.55498467733041
H          -0.08964392885068    0.02641372952913    1.75674956131143
H          -0.53235225767124    1.01588711964085   -1.42065017181050
O          -0.50063046749930   -0.89341416768853    1.88594898474603
H          -0.08927048459072   -1.25774479799857    2.67155830460560
O           1.90383816243740   -1.31889735077262   -1.43021552994998
H           2.60309181013644   -1.95250451187362   -1.25966735091993
O          -2.28666351032965   -0.99940651694233   -1.46360052639017
H          -3.02521413229352   -1.58992488299171   -1.62286602813764
O          -2.81160714757506    0.26305664209467    0.72784187060840
H          -2.54274773273195   -0.43439931094676   -0.66739961239743
H          -2.28316586705230   -0.21806843023426    1.37699829335155
H          -2.39008369471207    1.15586082882780    0.68389275010672
O          -0.25518300931477   -2.05415351262667   -0.38589388603283
H          -1.04941637246413   -1.63842223512841   -0.91347372552883
H           0.62806838677405   -1.70872844488857   -0.84901858090228
H          -0.30881621316008   -1.60127890780407    0.52924474104543
N           2.70443489941992    0.82771435970499   -0.21046821697821
H           3.68835859719671    1.00819161700846   -0.04847724700198
H           2.31047501302186    1.64582227140950   -0.67275979621151
H           2.19494170724854   -0.43608812676341   -0.99505851611414
H           2.22718816669231    0.82840802474860    0.68947428266873
