    26
        -50.44558839  Gyration_radius:  2.40946587508 Dipole_moment: 4.279
 S           1.41030825869557    0.31305106049695   -1.04119725715008
O           1.57783456744134   -0.31999145612480   -2.31131917610229
O           2.26625428084656   -0.17310277960745    0.02844334892445
O          -0.08428978101636   -0.13331050709282   -0.54630720746937
O           1.32057869580646    1.76988975605162   -1.06301256632314
H           1.04194492565635    2.08339256974136    0.85400038381612
H          -0.60064752538344   -0.15589170418450   -1.34893693320779
O          -0.72654824210598   -2.15337206604532    1.44651498107965
H          -0.33253323444478   -2.57170610129222    2.21467433983510
O           1.12536742258192    1.48297404531771    1.61127054285777
H           1.69929621266276    0.77653921482847    1.22281190257567
O          -2.56928858952109    1.35843010595828    0.18064172078035
H          -3.17136156459216    0.71882026540539   -0.20339864665350
O          -1.10034937713490    2.13963799217560   -1.89271241446822
H          -0.14821024989874    2.05196127542995   -1.63008819467785
H          -2.01548841250407    1.70089521496381   -0.56276688167698
H          -1.18865554165889    3.01322748730958   -2.27774135275714
O          -1.06345706620466    0.31045314564288    1.98034836534685
H          -0.13946031720002    0.81178847971845    1.86932280259831
H          -1.67989413155749    0.72313942502664    1.28056901819524
H          -0.91621556935131   -0.68038797559876    1.70996085565776
N           1.12047464363137   -2.70042248377421   -0.37638969753943
H           1.72432132040294   -1.90170442902726   -0.18154423127984
H           0.85785902306003   -2.60141556500126   -1.35001926878018
H           1.68210143020693   -3.54045744078542   -0.29796341285913
H          -0.08994118855790   -2.32243750957760    0.68483897939652
