    26
        -50.44704113  Gyration_radius:  2.69268971707 Dipole_moment: 6.638
 S          -0.88319277982507    2.36638091995336    1.43867198099038
O           0.15556090931738    2.56953586302818    0.42286271470554
O          -1.03852230053653    0.94548230298901    1.73311980178722
O          -2.10212147862202    3.06273319854771    1.14202551352342
O          -0.30977288383479    3.01214696011751    2.77755392448367
H          -0.69316451843592    3.88381530996040    2.77213063070496
H          -2.74835513152989    1.82161517330972   -0.40569658671366
O           1.23190555767546    0.60263526131676   -0.60630966839451
H           0.84255789333859    1.49734239374723   -0.19090428774745
O          -0.26121994594230   -2.61338394540882   -0.70009523716310
H          -0.57752012566719   -3.49622221514786   -0.89248276916340
O          -2.52898609143373    0.88508267383823   -0.46936833718067
H          -2.13773707716345    0.69490611747284    0.40099719230109
O          -0.68064064942533   -0.24198217461479   -1.98275892007341
H          -0.72463596299829   -1.15480459754183   -1.64048999835971
H          -1.44466288582951    0.22821068266749   -1.56916734007973
H           0.47360998592185    0.28994312411702   -1.28254361553941
O           0.71090650202710   -0.94299380352284    1.32878500009063
H           0.06720349047652   -0.28441357938656    1.68398276588700
H           0.17520157381396   -1.62863032781902    0.90013952213461
H           1.15781803946483   -0.06648916954698    0.18397948541340
N           2.38933726237096   -2.28929902482515   -1.04370224171048
H           2.99289179029426   -3.00971454325063   -1.41961439900530
H           2.53001562547251   -1.44729218082841   -1.58965521859349
H           0.71327549316268   -2.59466801309833   -0.89498878610113
H           2.69024771790554   -2.08993640607156   -0.09647110620219
