    26
        -50.46827151  Gyration_radius:  2.47312677206 Dipole_moment: 4.492
 S           0.40514461220570    0.52561896600961    1.58917733756319
O           0.63989589742872    1.86582914942811    2.06269424150899
O           1.44681426653828    0.09751132762301    0.62927032414795
O          -0.90715265070337    0.38052512446787    0.95101590163916
O           0.46698287357251   -0.43133351553058    2.80232953832257
H           0.19727404232107   -1.34530245919461    2.50350062545192
H          -1.50153176468925    2.32795937238292    0.35838938019339
O          -0.04541608298667   -2.84312167568285    1.98354162097758
H           0.47855927536462   -3.43069353563457    2.53121122415941
O          -0.70232748473025    0.37890190413075   -2.97830870180673
H          -1.52415042271223    0.79959017242021   -3.23670988582400
O          -0.83841138164737    3.02479500063866    0.27462094965522
H          -0.27346648244275    2.86429934378280    1.06664074153200
O           1.13323388992426   -2.37233790573600   -0.30189267155647
H           0.41313516656790   -2.80115123138822    1.09835632979302
H           0.34052303421763   -2.17434496396559   -0.82533316130560
H           1.44115923116677   -1.49591829563100    0.00902209131558
O          -1.31187289062376   -1.28263486265087   -0.96944621981291
H          -1.15358166397529   -0.65234898050723   -0.21030382791992
H          -0.94179118515134   -0.33149775072223   -2.34595896372218
H          -2.05348454848839   -1.82669414713833   -0.70021257032832
N           0.87383982039174    1.75562017616270   -1.28195866560068
H           1.65653273938380    2.27584287700101   -1.66414281986116
H           0.19761245653273    2.39373792337938   -0.75975545295007
H           0.35002258069869    1.24641118820891   -2.03437556162509
H           1.21245664197124    1.05073679825508   -0.55137180392211
