    26
        -50.46827124  Gyration_radius:  2.47330339263 Dipole_moment: 4.495
 S           1.34827143335438   -0.19902134410589    1.05270578873685
O           1.39081729043922    0.74555882304924   -0.08559433840931
O           2.41288039982868   -1.16674405072083    0.97770011920251
O           0.02377704794811   -0.82748504216027    1.09000679661306
O           1.53554032473495    0.62337392720392    2.34875405423052
H           0.74382433171658    1.22067822253870    2.46659533096668
H           0.25847097861515   -2.76247932573012    0.26675664194005
O          -0.42758105276341    2.31278636751547    2.55066492601195
H          -0.06757475869092    3.09500692254326    2.97282544254362
O          -1.81187342427260   -0.71044042744986   -2.39310222178576
H          -2.31998273987182   -1.52336477091766   -2.40010959013057
O           1.02836724390986   -2.96250086674533   -0.28085518236762
H           1.75201235513017   -2.51035098585544    0.21303214682969
O          -0.51998834993999    2.59301672032296   -0.04669274393888
H          -0.53149744665648    2.53762143408561    1.58412191322085
H           0.28717444384537    2.04950615588095   -0.15925505337225
H          -1.24841632991253    1.97748306211385   -0.22596832657110
O          -2.05242727605186    0.30197642936811    0.07409249145998
H          -1.24634642125825   -0.12321662796308    0.48393983620623
H          -2.71192884453866    0.32344209816863    0.76913006454973
H          -2.01333292900677   -0.26516894054040   -1.54284893858689
N           0.83874717521155   -0.94623983210588   -1.97332364858547
H           1.10013728962654   -0.17304527535543   -1.28107487100786
H          -0.16224655872440   -0.82545857176809   -2.26150606320961
H           1.45887149610190   -0.92975047439909   -2.77611432619518
H           0.93430433123676   -1.85518365699303   -1.42388024834581
