    26
        -50.44704137  Gyration_radius:  2.69262205832 Dipole_moment: 6.632
 S          -0.07812510729819    2.50419320725237   -1.47215546475409
O          -0.63427017250418    2.12840858505820   -0.17625746409012
O           0.28350940805867    1.30901246051801   -2.24207861099319
O           0.97366842021658    3.47906338533141   -1.42256963634281
O          -1.28214403114343    3.18141469361631   -2.26568511104237
H          -0.84146600678856    3.84291723345213   -2.79016987793815
H           2.21586322633636    2.47290675215253   -0.08785463694886
O          -0.02662791025621   -1.41490232704022    2.31858133596317
H           0.04062839507190   -1.71049586704807    3.22661608553061
O           0.04573615675908   -0.91034737995978   -1.19150929059191
H           0.14759697466446    0.00101842198670   -1.72464686641688
O           1.89968488215189    1.86059431077406    0.58636791516700
H           0.93725582755199    2.00353471451025    0.57360563430638
O          -1.71005514294302   -0.15644750321037    0.46787475152074
H          -1.49400602054858    0.78607233041317    0.27026127495192
H          -0.75145577741832   -0.71446880979966   -0.55602299334866
H          -1.28120098979731   -0.35138465770292    1.31587783946775
O           1.89637623012074   -0.77846621437803    0.48925756032650
H           0.89240000757933   -0.92185454903941   -0.54929050754151
H           2.07196954279147    0.19341571915525    0.51697750226062
H           1.38393168527814   -0.97018154290306    1.29720146001153
N          -0.97296459834326   -3.27425528353048    0.61707393666549
H          -0.35974956333896   -3.29571660306224   -0.18937874889045
H          -1.84552300179311   -2.85038885363821    0.32299244118872
H          -1.16453515663954   -4.23014327849924    0.88937646007851
H          -0.34649727777849   -2.18349892441349    1.77555503147237
