    26
        -50.46826889  Gyration_radius:  2.47166542849 Dipole_moment: 4.433
 S           0.02567716295418    0.91623617151630   -1.45821976427099
O           1.00868242779989    1.15380670525255   -0.37792741719776
O          -0.70396781529669    2.11493767512596   -1.78270892475155
O          -0.85608373592463   -0.18428152658006   -1.05373614136519
O           0.81100676604945    0.47425828343237   -2.71477431976809
H           1.22978638558598   -0.41428974732030   -2.53470206134368
H          -2.62088029292286    0.69200756604128   -0.42089762892454
O          -2.67953591811973    1.62459645937303   -0.17334987270099
H          -2.13058784343290    2.04977833208894   -0.87169152493241
O          -0.96006109075870   -0.69533506166520    2.84679646815360
H          -1.86241509601533   -0.98600265217058    2.98982895188447
O           2.05741661147261   -1.74085150339592   -2.17631075746631
H           2.87431092075350   -1.71973535885542   -2.67820447533042
O           2.44008125955007   -0.98197172136845    0.29591345366506
H           1.70148673818248   -1.46319250409334    0.70151950967833
H           2.30429831854043   -1.54613697753974   -1.22933544231691
H           2.07299026198571   -0.09359909643564    0.10696609272689
O          -0.11297224966698   -1.96675333631207    0.64730960888117
H          -0.38852988557034   -1.28352790570515   -0.02740707317315
H          -0.24704799411344   -2.81510567316717    0.22215963211386
H          -0.59685928028278   -1.26233465652081    2.13390424560895
N          -0.67115936679123    1.64073497545058    1.53776035421455
H           0.10698866801474    1.48593359024998    0.81935180202229
H          -0.74036887745065    0.79664718840039    2.15644878941199
H          -0.49588552866666    2.48167277664529    2.07754482082332
H          -1.56637053585361    1.72250799753197    0.96376165438125
