    26
        -50.44977087  Gyration_radius:  2.61704107398 Dipole_moment: 5.415
 S          -0.39502111144506    1.73046540524433    1.75099553260704
O          -1.54851904476404    2.39205242894281    1.19372986609423
O           0.88758959474685    2.24407689425380    1.33817705230429
O          -0.46965814308664    0.26846415043090    1.52425499990029
O          -0.48943679815583    1.91628732983201    3.32325299518871
H          -1.42350307224047    2.03560850519543    3.46657519734863
H           0.96342732366274   -0.03669951903471    0.73460581042759
O           1.72614509897399   -0.05974572294404    0.11311715485490
H           2.21599976990674    0.73669958175838    0.34239087323100
O          -1.19207805066122   -2.89976046526105   -0.87264876864228
H          -1.32423876980546   -3.14080440923085   -1.79127856221189
O           0.05773230499914    0.56051098327052   -1.90838144790046
H           0.81091476594961    0.28983949122156   -1.33695830435260
O          -0.15883781877585    3.00426708683273   -1.00520437342708
H           0.51261211521910    2.96764351597485   -0.30374528346098
H          -0.03644341001665    1.54076066067161   -1.75409952163161
H          -0.98392381613552    2.99552148413670   -0.49398338525906
O          -1.73992339939847   -0.43878245638868   -0.51911187459789
H          -1.35148178332006   -0.15774683647447    0.39172835487630
H          -1.03638555448176    0.00470103800442   -1.21696527621299
H          -1.60026671498929   -1.45509671804347   -0.60493247984258
N           1.42636407158074   -2.91551072794716   -0.47941985958564
H          -0.20186566497057   -2.94296378610589   -0.69966055870963
H           2.00649237150698   -3.22327881985067   -1.25004250267507
H           1.67228672840832   -1.94925658697846   -0.27540514561189
H           1.67201900727302   -3.46725249752121    0.33300948730754
