    26
        -50.44976343  Gyration_radius:  2.62005134783 Dipole_moment: 5.422
 S          -1.38949146326101   -0.37125272575342    2.06434855482733
O          -2.46674280559043   -1.13638660915171    1.48671842512214
O          -1.54892185590246    1.06161730713809    2.03734612862737
O          -0.09118993157497   -0.76438710311973    1.46939874484474
O          -1.30142863041634   -0.80376330121699    3.58754661038095
H          -1.67223315611581   -1.68114619771791    3.57990865490959
H           0.50139704089250    0.68975240777306    0.90572823299949
O           2.18996597000389   -1.66598796975156   -1.73836278111672
H           2.21297831405376   -1.71520862051487   -2.69555529673693
O          -0.84681233510384    0.66256139358559   -1.61714941347259
H          -0.25645624450866    1.15099336116760   -1.00056090215162
O           0.62881759446570    1.55357576258543    0.45258796701968
H           0.07397563601691    2.14987820506548    0.96617777548577
O          -0.20824064349189   -1.62115994606534   -0.88339542270113
H           0.76637697725121   -1.73333001690686   -1.19373302331350
H          -0.17939423528034   -1.41324740581228    0.12490021133258
H          -0.53495336446259   -0.67543324468362   -1.30413858292168
O          -3.02573698043338    0.86724414972261   -0.18764341211400
H          -2.65421770138163    1.31412775218427    0.59090011304640
H          -1.76204261848613    0.78841119207894   -1.24275022075862
H          -3.17039426704254   -0.03233999000609    0.14766750605944
N           2.98948857393968    0.77889624726485   -1.10743945965895
H           2.24795691062737    1.15889308286863   -0.52316546745875
H           3.12633923280739    1.41881035151777   -1.88014893330257
H           3.83759195730545    0.77401517380026   -0.55472493413175
H           2.53336802568963   -0.75513324605380   -1.48446108487650
