    26
        -50.46146987  Gyration_radius:  2.59024294411 Dipole_moment: 4.218
 S           0.61691903372871    0.36162518745213    0.22876968657148
O          -0.75554759688612    0.55883167846043   -0.21736860215655
O           0.85373713321941   -1.19337023281192    0.24786482458018
O           1.60351425685312    0.97339142140245   -0.62788088106227
O           0.74526389721118    0.74982953760324    1.64404462834579
O           0.70948669227709   -1.09042978350559   -3.76184138278550
H           1.01495343357692   -0.94431913030149   -4.65837403400926
O          -1.38301045726184    2.13382254544623    2.56456067664920
H          -0.53757416220850    1.74203469324641    2.26720961803037
H          -1.46453186444136    2.96806258039857    2.10000075100687
O          -2.59341471003563   -0.04401315237824    1.55651569370328
H          -2.08306563321071    0.12973000104026    0.73070754374735
H          -1.54604900979331   -0.87405386899842    2.22203919083518
H          -2.49509830672227    0.79685076450617    2.04838141621772
O           2.43409480959105   -1.33310256305119   -1.73293234581112
H           1.47854908828652   -1.39255072318706   -0.52393418336738
H           1.84681426335596   -1.39067408376522   -2.52266089304174
H           2.56393921865371   -0.38595264662566   -1.57204185379239
O          -0.05311869247110    1.24162707502270   -2.72205770882256
H           0.73771486963575    1.40746243291195   -2.18332946608380
H           0.33141625231054   -0.23072438907986   -3.45583816299518
H          -0.71426724483597    1.02805719019393   -2.04681292678175
N          -0.57029058929627   -1.25436554468439    2.56321872557181
H          -0.26803511181389   -2.02711095851012    1.97192579635617
H          -0.55761676927429   -1.49905727303423    3.54810424934734
H           0.08521718954870   -0.43160075777801    2.33172961974899
