    26
        -50.45316411  Gyration_radius:  2.76318293923 Dipole_moment: 6.495
 S           0.82849519091308    0.40316325103370    2.88812053762426
O           1.75341000286699    0.30355843107148    3.96814114246123
O           0.82353225828570    1.68974074727148    2.18931923734767
O          -0.64525287613961    0.30298602502444    3.56492338917619
O           0.83365162082306   -0.69815353295568    1.92692921911024
H          -0.73422834322988   -0.86142225303663    1.49991429274839
H          -0.44500022215214    0.56788310637646    4.45642396874444
O           1.42036029901295   -0.93965093329995   -0.68287526337372
H           1.48010666118585   -1.02159479733660    0.28630451336823
O          -1.65354728961125   -0.74509112492051    1.15126146907631
H          -2.18568086734140   -0.57722492577609    1.93118003019166
O          -1.12643660225314    0.60865446246320   -2.70529256694530
H          -1.58803761471561    0.63761611824390   -3.54380827153531
O           1.55127331112756    0.39271395789106   -3.05263544706120
H           1.75104484660537   -0.07433662004753   -2.22197910694201
H           1.96050477552326   -0.11943005936090   -3.75151851465134
H          -0.16872590319527    0.58985989658022   -2.91607523360803
O          -1.00247764897136   -1.83460030894792   -1.35092833013171
H          -1.22203886170383   -1.03797954848034   -1.86386345569972
H           0.64882623923470   -1.49700167706452   -0.94317286763958
H          -1.43427644708464   -1.72423137743704   -0.49341771780328
N          -0.18072674756857    1.15736376938913   -0.09141369771830
H          -1.01510717823902    0.60528403835911    0.18081306184715
H           0.25143123206636    1.52454146552329    0.83093812740748
H           0.51245891701905    0.47413237751758   -0.48484770061129
H          -0.41355873262403    1.87321951211515   -0.77244081510477
