    26
        -50.45316408  Gyration_radius:  2.76325699846 Dipole_moment: 6.502
 S          -2.32374654501407    0.41315573795889   -1.90303251554492
O          -3.11363091853568    1.20249280613310   -2.78893888517753
O          -1.29425357380997   -0.40423081646997   -2.54768817424618
O          -3.34776487359059   -0.66541505633729   -1.24867433868661
O          -1.77118179871991    1.10265996420014   -0.73856964507596
H          -1.82460305213698   -0.01588393239066    0.45050882747296
H          -4.03593540300286   -0.67164023105998   -1.90551262450426
O           0.70412561832820    1.68900006236305    0.12191948065175
H          -0.19655556582679    1.79420766101529   -0.23496202236662
O          -1.70163253221325   -0.80613827680785    1.03407325288901
H          -2.50265796747315   -1.31945702230209    0.91373623348025
O           2.38512706250006   -1.27984915434923    1.27554512333699
H           3.04800830218528   -1.66444985585696    1.84973875108313
O           3.31806068699658    0.93641939553158    0.02955527725278
H           2.46418972106555    1.39108324997593   -0.08109840595184
H           3.90602629898802    1.57033775367760    0.44272494005503
H           2.81568054384126   -0.52447837523381    0.82141264578994
O           0.43669266341189    0.36540951346485    2.42296589603645
H          -0.42800967436663   -0.03259200623914    2.25610083260496
H           1.09208214947237   -0.31099161279812    2.18026833218035
H           0.58056374411509    1.43884371233721    1.06838340105706
N           0.38608114617297   -0.87019667425450   -0.68934343957255
H           0.71847091691833    0.09511662490543   -0.44457649742929
H          -0.24115789938394   -0.75750464056069   -1.56451570239414
H           1.16827220883668   -1.50773971154551   -0.79980001832777
H          -0.24225124874127   -1.16815914537893    0.07977929537950
