    26
        -50.45316417  Gyration_radius:  2.76323175882 Dipole_moment: 6.494
 S           2.33618319235314    1.74096127547376    0.83771707802150
O           3.70970715463682    2.12097269035493    0.80950940854254
O           1.46541579637641    2.48456642520397   -0.07450196994050
O           1.80423772312917    2.13767249075901    2.32092538104886
O           2.05842828581580    0.30831063553539    0.75196861665452
H           0.75854971857901    0.09480447461037    1.71737032082317
H           2.44461011366830    2.79813141635947    2.56338272997815
O          -0.13581464241268    0.10158005423422    2.14204744512622
H          -0.04029381741449    0.69241368262635    2.89132508498651
O           0.82018236379683   -1.28220507093120   -1.02253028870011
H           1.52366262083906   -0.86349011248662   -0.49384722217913
O          -2.74079588996708   -0.75345365151226   -0.93709518584528
H          -3.61661574230695   -1.11292408708090   -1.08097765920046
O          -1.06988878260514   -1.36568315561003   -2.97885977549894
H          -2.21811797063418   -0.96638900202415   -1.73934603955062
H          -0.23905377686746   -1.35874524609557   -2.47118472000627
H          -1.08673189465477   -2.19912420633710   -3.45140650745139
O          -0.99114598341258   -2.16510216938610    0.72591076034742
H          -1.73105602665010   -1.72437126924071    0.27398065455239
H           0.29883511185753   -1.82058580841351   -0.38061307351081
H          -0.75784918956516   -1.59424723355403    1.46997471269767
N          -0.55192884099421    0.96034554548820   -0.39203736022878
H          -1.38705470479156    1.24689373767615   -0.89297624819164
H          -0.12031255165425    0.11135423938254   -0.83378202840438
H           0.23297336616745    1.70448822977518   -0.34451814894597
H          -0.76612565331467    0.70382612516970    0.58956401486474
