    26
        -50.45316360  Gyration_radius:  2.76454950369 Dipole_moment: 6.488
 S          -1.28722178653834    2.72346010035338   -0.36033119782693
O          -2.16743864817820    1.86065738309069    0.42962744742660
O          -1.40091088941286    4.11805110290736   -0.08826168228267
O          -1.79951313563012    2.53492216610957   -1.89064122498254
O           0.06865329308126    2.17759157667120   -0.38852483786758
H           0.01520202977214    1.04218183643195   -1.56077123137282
H          -2.32228247707982    3.32270941613750   -1.99652743778913
O          -0.16780512871565    0.24904112919668   -2.12446792930192
H          -0.74416072154491    0.57622525167278   -2.81756878380690
O           1.42866022586368    0.38727120044657    1.08016450284673
H           1.14120891903655    1.23516393420785    0.69541998356181
O           0.23572994724270   -2.94924851414922    0.44308205142901
H           0.42018584517818   -3.88867094706115    0.42299339513433
O           1.21363987143098   -1.79679352424173    2.68970870228604
H           1.34335815601805   -0.90173142686674    2.32909644828314
H           2.04936962454688   -2.04787930608616    3.08563110654890
H           0.56533916837182   -2.62003650588152    1.30643323845965
O           1.92262392568429   -1.23261491079347   -0.98147682833935
H           1.35815980014470   -1.94497442619268   -0.63527327169986
H           1.39280661586164   -0.77617456213151   -1.64849979170606
H           1.84675506033355   -0.10705921285775    0.33549174339038
N          -1.04316323276202   -0.42494102635634    0.34750399986036
H          -0.12042709714027   -0.23575988105805    0.81133313474792
H          -0.84860438867600   -0.51485597006436   -0.66701061687773
H          -1.47272127536591   -1.26568019115331    0.72046918714253
H          -1.62744372151282    0.47914529767628    0.46239988276080
