    26
        -50.45966249  Gyration_radius:  2.59321858979 Dipole_moment: 3.974
 S           1.17697786728165    1.87741334781971   -0.99925958529733
O           1.47956763019754    0.55388454559637   -1.49284237857545
O           1.27743566751469    1.93044125578220    0.45857442669835
O          -0.07491152780054    2.42837464327549   -1.48227475707685
O           2.31516112368101    2.83979320868068   -1.55528234854780
H           1.96323596317923    3.70276317108606   -1.36015635089562
H          -1.32057733698702    1.53487784988930   -1.01261983795909
O          -0.43137883355228   -0.77745699640972    3.21368023508206
H          -0.59427138716762   -1.53946770493947    3.77111192124970
O           0.12523117210588   -2.29962925478916   -0.35676296839044
H           0.58126101337535   -3.06959137050643   -0.69793021082457
O          -2.07687704904699    0.92644141447438   -0.80992245025695
H          -2.87236898268993    1.44627599081267   -0.93498493089268
O          -0.59144124839646   -0.83338651292481   -2.35606315250484
H           0.20810399335341   -0.27452597749298   -2.25687528444785
H          -0.17512936462838   -1.78398430167412   -1.16940427272077
H          -1.31539002441861   -0.29251680068247   -2.00260849904283
O          -1.96688316935588   -1.06979719004414    1.09357791230802
H          -1.13189773688517   -0.79452596727134    2.51256467823135
H          -2.06573567825008   -0.29822756103416    0.50936480556070
H          -1.40995951687374   -1.68851019967788    0.60152876347787
N           1.39372780053051   -0.51662005371332    1.26984707400091
H           0.99472926181976   -1.14886450921626    0.53778180727350
H           2.36103046221905   -0.75702126978451    1.45694691229938
H           1.34809554611298    0.50256730027889    0.92797368760818
H           0.80226436466961   -0.59870703752593    2.13403480364274
