    26
        -50.45316419  Gyration_radius:  2.76342093296 Dipole_moment: 6.495
 S           1.29781663533330    2.45639987800088   -1.21423856458857
O           2.11726748436736    3.11226708960722   -2.17869957607384
O          -0.13519217329503    2.45272003193431   -1.51426152663100
O           1.42676027390353    3.34160359918698    0.14208344263496
O           1.73272894270099    1.12639787944441   -0.79140386749682
H           1.33348643464928    1.06116822324542    0.79104243738962
H           1.70058783650602    4.17678849479221   -0.22191909472223
O           0.87205562340696    1.03681774983340    1.66665053405087
H           1.01920761064850    1.90819037074882    2.03898725501701
O           0.72649000378826   -1.35442709624843   -0.99939276609223
H           1.29919230033600   -0.57762863629521   -1.13491818016395
O          -2.11174377926754   -1.76334826930459    1.17879166640936
H          -2.65544570461703   -2.35653807088899    1.69796678221932
O          -1.56284669381409   -2.80261476808720   -1.26119457872811
H          -0.71080726893116   -2.35336481578826   -1.40334970834512
H          -2.00811470516562   -2.18159423275691    0.29760472715706
H          -1.40323223809300   -3.73399302906413   -1.42019291112883
O           0.64636314515318   -1.76039887756596    1.63616781241953
H          -0.32564825060977   -1.77938175058168    1.66473439306004
H           0.90483548567316   -1.64969347800126   -0.07486832444335
H           0.90202369761240   -0.87354497380418    1.92262087523808
N          -1.05324110918372    0.49909507053587   -0.15977172770395
H          -0.80386941845779    1.35302057426050   -0.77686390232117
H          -2.04587902384742    0.30346958386155   -0.07699179084169
H          -0.54114044059262   -0.31808185766641   -0.57475455002703
H          -0.62165468820057    0.67667129058583    0.76617115370518
