    26
        -50.44574825  Gyration_radius:  2.41277000534 Dipole_moment: 4.186
 S           1.43853576581234   -0.04560124484116    1.04585634305033
O           2.76746660102194    0.29030262044724    0.63456824698656
O           1.17493121124037   -1.43284391185875    1.36778804822041
O           0.51040065085173    0.17544683354801   -0.27503492217932
O           0.86457338173059    0.88107609783198    2.02709624094060
H          -0.65385309857149    0.14262256528359    2.20221661578080
H           0.83441137818274    0.97263110107796   -0.69852560683304
O          -1.36897292031722   -1.49520048777863   -1.91934628829386
H          -1.93920629736408   -2.26625331257522   -1.89716869152471
O          -1.24898124866794   -0.59531438883162    1.93598298216912
H          -0.58021961175040   -1.28213009123299    1.74537081839676
O          -1.25241867333475    2.59571979241278   -0.47569310082668
H          -1.73770947829043    3.20834609583196    0.08055705623707
O           1.34616094678092    2.77487833769766    0.31310767271233
H           1.19926187761827    2.20814820443502    1.10396626804724
H          -0.30800048675604    2.72994422870909   -0.26665816278058
H           2.27644111413952    2.65346322343147    0.10579184989738
O          -2.22136154850384    0.18399752065600   -0.23885579413998
H          -1.83404472375399   -0.46350775927182   -0.96240909281145
H          -1.84479459924407   -0.16193870343804    0.69379269027604
H          -1.81050651547234    1.09300233911540   -0.39226006555847
N           0.95704555047916   -2.51838995428073   -1.22421828000720
H          -0.44432484344222   -1.81843137289313   -1.66346000451879
H           1.71832991480864   -2.11478152064272   -1.75588435389855
H           1.07287118624524   -2.19159743107903   -0.26202025080527
H           1.08396447853331   -3.52358880968723   -1.22456022250442
