    26
        -50.44574811  Gyration_radius:  2.41348575398 Dipole_moment: 4.201
 S          -0.49210487346144    1.24854066319757   -1.17129236865928
O          -0.13588850742407    1.26755823124245   -2.55731552747110
O           0.07495197380992    2.27966108510832   -0.32692280010943
O           0.19831446124129   -0.09798043987248   -0.56732706555343
O          -1.92290333841115    1.03994250666033   -0.92540336363083
H          -1.88674711229786    1.06798674536155    0.77118153741384
H           0.07846641351874   -0.77943512069788   -1.23165877602848
O          -1.48384904975581   -2.51665868892564    0.00985591994140
H          -2.37645400251534   -2.76533097564775    0.25787761395811
O          -1.33941146782240    1.16325114257173    1.58419705384804
H          -0.64018343847891    1.75346916249566    1.24062464260369
O           2.12524395367109   -0.75012822153796    1.65043029141199
H           2.47527086972337   -0.43718715659719    2.48694457208415
O          -1.70507365124774   -1.13801938659604   -2.32651679432476
H          -1.55130955112352   -2.11157152459721   -0.87606668713141
H          -1.29514765097166   -0.83575678777237   -3.14120486038522
H          -1.98286950837039   -0.30934527184478   -1.87418579219425
O          -0.35755340964694   -1.12026583927471    1.90665367307500
H           0.66946685382327   -1.00407908767523    1.74693509497966
H          -0.77910057559454   -0.14858194568880    1.80924715730304
H          -0.72461718258385   -1.66879706642915    1.14362562773892
N           2.67670011448105    1.26076654133593    0.04161771499326
H           2.97766790978482    0.93815083299383   -0.86967454267018
H           3.32437419582335    1.98039496569050    0.34012093446285
H           1.76444234684850    1.70219481057824   -0.09609469613284
H           2.30831421698602   -0.01877918408695    0.97435144048758
