    26
        -50.46770705  Gyration_radius:  2.51925934267 Dipole_moment: 3.816
 S           1.43398862597771    0.14768571185100    1.63967525740091
O           2.19562874591749    0.22784104064970    0.40575270456087
O           0.39448126854285   -0.86919081073953    1.58116162771896
O           0.90975187323729    1.43217984171725    2.06616880131406
O           2.46051824302405   -0.31679825382182    2.74913642397824
H           1.93869043195674   -0.28723395365926    3.54461264747917
H          -0.18023069760844    2.07907642341623    1.10867898765101
O          -0.84315563383481    2.40578774523421    0.44174030389036
H          -1.10154598243298    3.28280844722808    0.72903801783973
O          -0.26077543448322   -1.06728598828817   -2.40431935348154
H          -1.19486626798171   -1.17563425403245   -2.10192799066582
O          -2.65004991249185   -1.30823941713612   -1.28673250614163
H          -2.89358007815160   -2.20312030362914   -1.04605048616476
O          -2.09921759350511   -0.04782044892489    0.98441542022467
H          -1.25344691292705   -0.42659179277968    1.28867420486395
H          -2.52545995833806   -0.82355579651200   -0.43471131529732
H          -1.90971736375099    0.88191153572506    0.79774298119189
O           1.23646975235396   -2.24246973150345   -0.53312797492269
H           2.09634317350058   -1.81408603774424   -0.57214202821413
H           0.83167168475513   -1.88547619690569    0.28174138655426
H           0.27262661548913   -1.65827721966697   -1.82253577730524
N           0.62675882177981    1.15847477812279   -1.49689053729581
H           1.33574666813979    0.82867747186052   -0.78849485421464
H          -0.08151114310377    1.70424525127207   -0.97863229699686
H           1.07286176653010    1.73078668384994   -2.20554596834202
H           0.18801929751863    0.24630529416713   -1.94742766566765
