    26
        -50.44529029  Gyration_radius:  2.48685875111 Dipole_moment: 3.283
 S           1.57605382037775   -0.84398904466804    1.43415548648683
O           0.55946906412964   -1.72059443997812    2.04258233867239
O           1.85607654661472    0.33955135293524    2.18925741331194
O           1.22577462530340   -0.60071804483887    0.04353387252772
O           2.91057392069254   -1.70604293667775    1.41126149771073
H           2.67326067556897   -2.46623620468226    0.88817316656977
H           1.35518554129263    0.70052317655930   -0.92689920356480
O          -0.82822024173395   -1.98661949922465   -1.87947463031375
H          -1.54416864209617   -2.39564974615344   -2.36950371366336
O           1.34056850216287    1.46156570556477   -1.55630939538723
H           2.04375995791385    1.29595865097702   -2.18569384232707
O          -2.02409558504892    0.82497121034703    0.48644531902802
H          -2.69989416642200    1.07008447284446    1.11958655926859
O          -1.40229965755354   -1.65934228829892    0.58042737985670
H          -1.66051609972985   -0.66953544924293    0.56655543971828
H          -1.08433272288855   -1.86649721020649   -0.37825492528941
H          -0.54015605039552   -1.72819079623227    1.23627684628201
O          -1.14685281578978    0.58835918256733   -2.19858089249371
H          -0.85898088679813   -1.01174385363711   -2.09941855206711
H          -1.62368687754882    0.79663108165452   -1.38371986292529
H          -0.26369682333553    0.99376834492952   -2.08264354686528
N           0.07686526557406    2.18658558702973    1.04694434300834
H          -0.00392310844397    3.03906174491696    1.58687729260260
H           0.71961359588993    1.56058082909356    1.53961842603596
H          -1.17647884129597    1.38186682023653    0.72575974969250
H           0.52010098345144    2.41565136371536    0.16304342328830
