    26
        -50.46770634  Gyration_radius:  2.51914716981 Dipole_moment: 3.786
 S           1.29190147502373    1.71461691795254   -0.40059137538101
O          -0.16128197089623    1.79765376894818   -0.40618090785575
O           1.78453736116992    0.61669589783673   -1.21367005573487
O           1.82718636623071    1.70411145386580    0.94853648282241
O           1.82228552338136    3.03375030737850   -1.09267756982109
H           1.51926711881686    3.71705808008951   -0.50333415375572
H           1.39003667488851    0.47274056744781    1.85189194508225
O           1.07066683057287   -0.33908188359791    2.33139913563875
H           1.50935844188603   -0.33622324813061    3.18346408156655
O          -1.13770668961249   -2.04042399418103   -1.23525959219654
H          -1.86085482275576   -1.84697747144563   -0.59070800462162
O          -2.93069400507310   -1.22787528335996    0.53648798703704
H          -3.69764962591258   -0.79172307171432    0.16289383947158
O          -1.46362732340865    0.67513356674013    1.66551583710570
H          -1.08018477269516    1.17945076110301    0.92382530137616
H          -0.70944225081427    0.27197272968193    2.11691673002173
H          -2.43166533728846   -0.52745493583076    1.02326190684999
O          -0.68232235359273    0.25962061344621   -2.51051986503953
H          -0.65862088732376    0.88793931188812   -1.76223089978464
H           0.23080820467155    0.22027015368884   -2.80915779168026
H          -1.10106178067132   -1.25541730059035   -1.83084899773931
N           1.10837599330921   -1.65688824490614   -0.06372344807179
H           0.12615583218791   -1.89914467188888   -0.51582453121515
H           1.46247461615164   -0.79839743417043   -0.56446572560029
H           1.01473738948818   -1.40357452181487    0.93387324852803
H           1.75731998222704   -2.42783207838188   -0.17887356692890
