    26
        -50.45526429  Gyration_radius:  2.81454936288 Dipole_moment: 3.540
 S          -0.02600787828622   -2.28408859065030   -1.76525227382454
O           0.24045621829729   -2.81670510131884   -0.44418013798543
O           1.00808193804795   -1.34514201825817   -2.20268517750498
O          -1.35136903559236   -1.71464623705042   -1.91873816015511
O           0.04911704737107   -3.52248639162305   -2.75393813784530
H           0.74741369945216   -4.03501046748404   -2.35889513362511
H          -1.72122040868727   -0.33240222300378   -1.28673807492301
O          -0.47735734298571    0.32777663934468    3.47571399202791
H           0.14268797974815   -0.06758983204022    4.09009371739197
O           1.76051067980844    1.31851946005531    0.70463562388075
H           1.34537159998335    0.46562256542280    0.94120189060559
O          -1.84509729176967    0.54724725498978   -0.82897296950739
H          -2.79180195135659    0.68876891680349   -0.78720693773513
O          -0.06311138215317   -0.66001763347245    0.99227770330676
H           0.07768715379253   -1.53181038142675    0.55606923292839
H          -0.77990618295145   -0.23194419325544    0.49947526557453
H          -0.38456567903703   -0.16693904067967    2.63643436009648
O           0.14654210622080    2.71247370143125    2.36396184301559
H           1.31589348619404    1.97272577762807    1.28199391274074
H          -0.68148603294516    3.11485886185985    2.09974937091514
H          -0.09543979117906    1.91611418744014    2.88439005729254
N           0.67745966936363    1.15915118592634   -1.65500635055044
H           0.96983700297939    1.78586429399972   -2.39562579114173
H          -0.33379271456162    1.22981579588122   -1.46490794644236
H           0.86036205706645    0.13487096520201   -1.92956981239534
H           1.20973506323289    1.33497253436837   -0.73428009613493
