    26
        -50.44204353  Gyration_radius:  2.56037217301 Dipole_moment: 3.823
 S           0.89354235520802    2.03885218032313    0.82006309923543
O           1.60978738300081    3.26928542121987    0.90687118768081
O           1.22025727321284    1.21950754287192   -0.35566434203928
O          -0.64514912373892    2.48456354878634    0.56110860170871
O           0.86849843278176    1.21421407527305    2.00959072781635
H          -0.03668087374262   -0.08624841607838    2.19112871722073
H          -0.47786297983648    3.41986416798543    0.56463697558218
O          -0.63525603341736   -0.87544094914941    2.27646500464122
H          -0.82453879261119   -0.95517512762702    3.21274765326513
O           1.23831254528844   -1.97739822703959   -2.12761521454659
H           2.10419347670649   -1.98703108361036   -2.53845274455704
O          -2.24246133985271   -0.52780839328745   -1.58298104573648
H          -2.23875657433251   -1.48208532964533   -1.48465978002738
O           0.04939075410919    0.23659575761234   -2.31248516861665
H           0.55051872513840   -0.68035392864327   -2.33948789659399
H          -0.92480689042798   -0.00813914939467   -2.04367221767007
H           0.48926382644859    0.74050018736585   -1.51723471796575
O          -2.49466627121849    0.40924603390347    0.81838526467709
H          -1.92396921943351   -0.16384351060971    1.37375763869535
H          -2.03126678149242    1.25626735620704    0.77317064555602
H          -2.43502410112041   -0.14865584021921   -0.67506763829548
N           1.60300849062223   -1.49742609048869    0.39273201814203
H           1.39603508371074   -1.90311980660631   -1.11713224843223
H           1.61453295919283   -0.47751085187325    0.33099137447091
H           0.82237488389898   -1.73557073058706    0.99680578671624
H           2.45072278175732   -1.78308885664855    0.86599831914167
