    26
        -50.44204347  Gyration_radius:  2.56036882159 Dipole_moment: 3.824
 S          -0.77628241471103    2.20585788208068    0.39911401032746
O           0.05220383840765    1.62831674443342   -0.66877399878607
O          -0.93778646505861    3.62130937637667    0.32884862934907
O           0.10511820217708    1.96591472933060    1.74029059545761
O          -1.97980050879899    1.42076719389494    0.57453299002432
H          -2.00371599861619   -0.14419463840380    0.88073466557361
H           0.17999918257687    2.88394501199190    1.97345400093991
O           1.18252278411933   -1.21967506730856   -2.66162451571872
H           1.23228898657531   -0.85334053947974   -3.54588694542198
O           2.20888404993355   -1.38839240384416    1.00325180103566
H           1.97344244135629   -2.25384814001479    0.66288785776415
O          -1.97701857056625   -1.11410223874814    1.09735678240046
H          -2.77433832377043   -1.28790051669284    1.60024349119862
O           2.13238791542118    0.28890147526024   -0.88079968796641
H           2.21483251939526   -0.35049965018836   -0.06495015966394
H           1.83043453693149   -0.32980027101191   -1.66736102908167
H           1.31635126648493    0.91274180656868   -0.72377120051544
O           0.24847142916378   -0.70173789684215    2.55030708321127
H          -0.56023080444676   -0.99295095339622    2.07727725193729
H           1.50789639762023   -1.14736068753379    1.67823597910125
H           0.24443184533365    0.26254277443348    2.48406445075297
N          -1.18678693219341   -0.68915821344620   -1.75591677433680
H          -0.98020736253884    0.24130024710184   -1.38745927763188
H           0.21036343200757   -1.10914305205512   -2.35467313052285
H          -1.48283322986715   -1.24865750645297   -0.96200201236127
H          -1.98062821691507   -0.60083547617530   -2.37738087684161
