    26
        -50.46021516  Gyration_radius:  2.60098215758 Dipole_moment: 5.810
 S           1.88032785919387    1.15266862632640   -0.13686964995091
O           1.02832947124939    2.28907332987295   -0.48503987037663
O           1.40746553417956   -0.08460219164787   -0.71106622997854
O           2.08350979745253    1.07858628349162    1.30196501893925
O           3.29708441576599    1.44224507868933   -0.77485562730096
H           3.59515169728608    2.19476920140237   -0.27400128233530
H           0.81963209789441    0.49255744153247    2.04976722575890
O          -0.04740701929545    0.18327323541678    2.43382232013452
H           0.03697068309712    0.27198526975960    3.38465173782538
O          -0.81313029243381   -3.31504142387755   -0.70605876077390
H          -0.32535017841787   -4.03958479696353   -1.09986552550716
O          -2.63434594765845    0.52398515513239   -1.34024819357901
H          -2.82918077810754    1.06407780328480   -2.10768485821445
O           0.86036583950766   -2.10215092254011    0.99022071125011
H           0.39814594531725   -1.57371107534825    1.65256249506463
H          -0.23027439256311   -2.94868753681335   -0.00095081206042
H           1.20971091524641   -1.44931182878636    0.35533192441271
O          -0.73594587841592   -1.02042317280009   -2.12699152666657
H          -0.85611465297093   -1.89517947967566   -1.69703656434037
H          -1.94538968517239   -0.14493611298050   -1.65620320842939
H           0.07986137121244   -0.65759542561174   -1.74133134611779
N          -1.27300233196850    1.71568559540158    0.55073817737616
H          -1.87491749700081    1.22342916804916   -0.18889933393758
H          -0.35416437581412    2.01433433244181    0.08690879846716
H          -1.75902605514299    2.52416863418193    0.92489735910537
H          -1.01830653241870    1.06038481205340    1.31623702119862
