    26
        -50.46021507  Gyration_radius:  2.60104496954 Dipole_moment: 5.809
 S           0.89284339277892    1.55944502197484    1.28602283981057
O          -0.39819677607578    1.37446508669336    0.66703553719477
O           1.97979439028882    1.58692104941256    0.30814889820794
O           1.16851810006571    0.59591706176299    2.34085431678011
O           0.87201155495452    2.98225634575024    1.97397561787916
H           1.69280770841216    2.98649388490668    2.45579891716310
H           0.91748841556313   -0.89101565406234    1.86536723578108
O           0.80174490464103   -1.79124220328043    1.45169686992607
H           1.12136859526790   -2.42312438320853    2.09794664659244
O           0.41636549470830   -0.49332265084614   -2.93147734228914
H           0.75893832146689    0.09631116518661   -3.60497505285333
O          -3.29209870746420   -0.83271274861144   -0.78845318193807
H          -4.13602885147361   -0.42563647335135   -0.58827024209271
O          -1.85296704745579   -0.74996296504357    1.46359351289947
H          -1.13117689762494   -1.39073620871767    1.46655063422266
H          -1.42029544310481    0.10641146955523    1.28828276143283
H          -2.81567415914201   -0.90360829286808    0.07123405598287
O          -1.45273958629022    0.86367293515773   -1.80313311062966
H          -2.17364080613801    0.24405564544047   -1.55643279284351
H          -1.08395754422173    1.17378482204148   -0.95829332379643
H          -0.37401354925735   -0.00628985541351   -2.53143710929576
N           1.91449216360533   -0.75036074107029   -0.80102566759232
H           1.31017871387281   -0.69931152523745   -1.68638461411823
H           1.99478969181997    0.23840055017603   -0.39535509660301
H           1.45472373294232   -1.33208576627327   -0.07269073435021
H           2.83472418782878   -1.11872557005048   -1.01857956544524
