    26
        -50.47071346  Gyration_radius:  2.41596343735 Dipole_moment: 4.151
 S           0.50430082664520    1.57872601455070    1.16882600974011
O          -0.24702062343588    2.16717269302735    0.07223501649590
O           1.71180461115443    0.90151393331496    0.76196062404343
O          -0.34463633846698    0.72760669626205    2.00483914481964
O           0.95756187123855    2.78842260043359    2.08429389127204
H           0.16757393748912    3.31577896516574    2.13059666343553
H           0.45491822129611   -0.70479743376775    2.14444089301769
O           1.07958314397044   -1.45428184793026    2.00627803346977
H           1.92250880534554   -1.00655630573690    1.87212380128832
O           2.02982553774456   -0.34231171244416   -1.57153082029573
H           2.13980820613805    0.18775758551533   -0.75620106226510
O          -1.90537593096943   -1.14369967893146   -1.20673344530117
H          -2.71871763275249   -1.55548829116935   -1.50036658348340
O          -0.18920038788520    0.88952209096689   -2.30680031495036
H           1.34273819878208    0.15221958886548   -2.07840643927945
H          -0.87244125941317    0.22596283552302   -2.14257886055807
H          -0.19212370823844    1.47551027155858   -1.52574092658001
O          -2.46867904144178    0.75007024649546    0.48004941284617
H          -1.87816445908108    0.58515292487044    1.24193041958772
H          -2.03097535772692    1.50662402529036    0.05958349497028
H          -2.17292865360555   -0.44985796758571   -0.53463731777490
N           0.53095353150675   -2.14900998031936   -0.48468426481553
H           0.71170667103760   -3.11774610280092   -0.72242989502858
H           1.21040884199791   -1.47574608958349   -1.01083007067673
H          -0.43913121675968   -1.88012178921222   -0.73825866844250
H           0.69570220540928   -1.97242324236128    0.55204125446400
