    26
        -50.45568714  Gyration_radius:  2.56696532617 Dipole_moment: 1.980
 S           0.71254421524394    0.13326903085248    0.69833574918558
O           0.73202376075451   -0.36497421940854   -0.70031815622910
O          -0.37412872231778   -0.48862759188711    1.43200181430758
O           2.05996373143720   -0.27358244320086    1.32736511807075
O           0.64132413843474    1.58249880012644    0.72101866475695
O          -2.49002133571317    1.29871112908481   -1.65994430239553
H          -3.00801752495897    0.50663431432307   -1.81311535716214
O           1.05690814347704    3.13941911778898   -1.30104540440163
H           0.92681605368983    2.66229577545333   -0.44049008895075
H           2.00335464179981    3.25090335966548   -1.40767321918922
O          -2.12049020058007    1.41716171083695    0.91921172075452
H          -1.52998675159278    2.15522742319736    1.09919380255976
H          -2.41355573367209    1.39589913307097   -0.66792584079580
H          -1.59619421407762    0.63025411543272    1.18085609362808
O          -0.08309605321992    1.17610820779243   -2.43621139074559
H           0.29170192251951    0.46170601518590   -1.72636075992591
H          -1.08851836956118    1.25832961233260   -2.20593443784629
H           0.35692873054993    2.05220576610367   -2.13549436306434
O           2.02867311910203   -2.58022603729798    0.24545228935550
H           2.19614639263001   -1.21879796202870    1.00448327651973
H           1.32151016831322   -3.02793001048575    0.77897070607346
H           1.56950339672421   -2.13791975300846   -0.48080099666444
N          -0.07675178407370   -3.30392076297503    1.73456999842692
H           0.09480815271837   -3.57229185091994    2.69532042171713
H          -0.87223045909319   -3.83575897449576    1.40453486700859
H          -0.33921540852396   -2.31659389555139    1.73399977501332
