    26
        -50.45730965  Gyration_radius:  2.44896384998 Dipole_moment: 7.983
 S          -1.17817438103870    2.01958937043898   -0.62321255621339
O          -2.23131484866134    2.95762919984988   -0.78547743846000
O          -1.60581435406235    0.61573379568658   -0.91220629537982
O          -0.46921205285776    2.05595238927565    0.64867185067419
O          -0.05821399839347    2.29117674897937   -1.71691812039364
H           0.73773055008583    1.93317157079161   -1.28841226946668
H          -0.50574039048797    1.05957807650643    1.84437468153875
O           0.15313883899024   -2.61170739665728    0.02684645147508
H          -0.01419455881535   -3.55278076562548    0.07983848842930
O          -0.46065133466519    0.38175125538668    2.57781975830743
H          -0.54531673519501    0.87530036497802    3.39416615301258
O           2.08449588724770    0.92832122237029   -0.76096579227308
H           2.83396037573763    1.50289412265289   -0.60151239319730
O          -1.85541029776366   -1.29046430937042    0.94442433482464
H          -1.50366136021623   -0.81578117620259    1.71740171776659
H          -1.96137591008169   -0.59484704608915    0.26263372360831
H          -0.66307655636849   -2.15674012560858    0.41881793567246
O           1.71224415976157   -0.63716866628221    1.29445872471871
H           1.32758390965912   -1.45072576885484    0.93662229107135
H           1.95406867427695    0.40410961947039    0.08246161388215
H           1.02206154979083   -0.25902074120933    1.87267482858500
N           0.26525147525797   -0.75028301895745   -1.91233083620671
H           0.13060773095553   -0.97468218087828   -2.89132115715479
H          -0.58650132877544   -0.13550922694378   -1.52722368505736
H           0.30080737043276   -1.60393797366360   -1.31361398571535
H           1.11670757518193   -0.19155934004623   -1.76801802404569
