    26
        -50.45730955  Gyration_radius:  2.44900332816 Dipole_moment: 7.982
 S          -2.13915487458315   -0.56345268812261    0.98123981695092
O          -3.36850582519591   -0.42760727178145    1.67803872456459
O          -1.01028812709857    0.14750951569037    1.65769570634750
O          -2.15367082288025   -0.21080450535969   -0.43197659787756
O          -1.68208701032660   -2.08466848549369    1.01256308692568
H          -1.12815058736903   -2.14902312260214    0.21602255831449
H          -1.54403627900232    1.02027924324036   -1.16458398497291
O           2.36865945399536    1.08963669958211    0.21397439027637
H           3.12079928455188    1.64969594830001    0.40644970130817
O          -1.08350616463678    1.76302069551925   -1.65002560542853
H          -1.73140876957382    2.11645222823486   -2.26028151958640
O           0.20205135049530   -2.20624916101987   -0.93552263565601
H          -0.03311746309395   -2.83030703307071   -1.62287244036392
O           0.17270821299353    2.34170503116938    0.69445710660491
H          -0.26901483234712    2.40215474467279   -0.17027654762351
H          -0.33942886408415    1.66159309520536    1.17938719199871
H           1.54443227417663    1.64741493848864    0.40532929900962
O           0.99156663712924    0.03897593490713   -2.00764173476356
H           0.24758650764159    0.67121603597636   -2.02730143777201
H           1.62993733745929    0.41548616995669   -1.38429355964921
H           0.43058063848540   -1.35151465319625   -1.40498945278154
N           1.18632798795576   -1.05129467034729    1.33427856691962
H           1.54089532045962   -1.49111500311821    2.17556804490235
H           1.01217257174214   -1.74271910236869    0.59301447444737
H           0.20762570972811   -0.54727269172961    1.53422522423505
H           1.82702634336977   -0.30911191273429    0.97752161367249
