    26
        -50.45966292  Gyration_radius:  2.59336895492 Dipole_moment: 3.966
 S           1.91420447963456    1.29272191620317    0.75872071123765
O           2.17361634037150    0.74359670176752   -0.57136276077754
O           1.39023855281987    0.27987615121506    1.64547979007783
O           1.12769600466831    2.51037041876650    0.70471595231659
O           3.33028920027622    1.71965661737793    1.34424635943552
H           3.52851710061651    2.50361863268539    0.84169114035053
H          -0.35336258058486    2.22678814820393    0.16093985917366
O          -1.18648284330571   -1.75475920046887    0.96883237166801
H          -1.25758686755457   -2.45878328238379    1.61416899051377
O          -0.48132231125700   -1.59344038400512   -2.88551478090341
H          -0.97893819009556   -2.32706675145634   -3.24887642793628
O          -1.29676359457352    2.03376318905647   -0.07607776152146
H          -1.68315906762886    2.87615019577260   -0.32045033564844
O          -2.12312353739232   -0.31091020341660   -1.27442756276824
H          -1.83795718827230    0.56635988106964   -0.96533056737980
H          -1.14140386029386   -1.01390572818742   -2.42603971808955
H          -2.04322612904449   -0.88828538250171   -0.50288047547720
O          -1.17275707659446    0.49714825449748    2.23021814079918
H          -0.19257610107799    0.51960498956729    2.21444786095404
H          -1.44464883578251    1.14349270996425    1.55952938029881
H          -1.23219991803876   -0.89903991709581    1.49987249954720
N           0.99688677559626   -1.55181926970270   -0.65143313315770
H           0.54062223766803   -1.64835881775275   -1.59267181652663
H           1.68402706486118   -2.28113535307308   -0.49508804358542
H           1.48915837876285   -0.59585208097967   -0.61349833646971
H           0.25025198622382   -1.58979143511508    0.08078868386273
