    26
        -50.46161842  Gyration_radius:  2.7352896344 Dipole_moment: 3.823
 S           1.51276781845787    1.76359094995087    0.99239629220819
O           0.95593411908179    1.96111667681459   -0.32721319988227
O           2.07776957100429    0.42691527820096    1.16395767560963
O           0.57392172247243    2.08271768734825    2.05814930729182
O           2.72078659299980    2.77897441414824    1.13698811276268
H           3.02933537890867    2.59659875242419    2.01900304942921
H          -0.73287755593510    1.18284249982370    2.13476914668221
O          -1.52163383479472    0.57479221638432    2.09479375862589
H          -1.92575879967424    0.60979622450979    2.96266259733380
O           0.13119868025378   -3.53493569251246   -0.41462256447341
H           0.97599155645180   -3.98496493230758   -0.46178302251109
O          -0.43001943331201    0.28714143111321   -1.92929214093299
H           0.32725437099020    0.86826588661181   -1.74554800455287
O          -1.79951974314039    1.94225901465810   -0.37277593366272
H          -0.88860864010798    2.26775354547553   -0.27454558658379
H          -1.18828983987972    0.82908218058397   -1.61569053326688
H          -2.01277256484596    1.53449003042323    0.47716157956296
O          -0.34117993986227   -2.33592936511909   -2.79403511130499
H          -0.06542775318032   -3.22511574629633   -1.32397446682909
H          -1.12262284218741   -2.49466172194019   -3.32564318782812
H          -0.31390680504066   -1.37781435860159   -2.62750091469810
N           0.00127835073902   -0.97202515523042    0.44488798660576
H           0.06102169100095   -2.00632283650073    0.34098109614365
H          -0.22157370764718   -0.55809842537292   -0.49115585034916
H          -0.72068447972128   -0.67709026067462    1.12107610774764
H           0.91761605697818   -0.53937827392472    0.75695383685347
