    26
        -50.46161851  Gyration_radius:  2.73525265353 Dipole_moment: 3.826
 S          -2.06536198990057    1.01964751617249    1.03856342858187
O          -2.08125848338492    0.64010401573077   -0.35647687519648
O          -0.86738088097592    1.77619473762539    1.39618969844626
O          -2.26683224545242   -0.10868801161889    1.93596109656507
O          -3.29200607090874    1.99777959222152    1.26159745173043
H          -3.21916541278944    2.19987295537523    2.18895302095170
H          -1.14720555671167   -1.23528142616639    1.91063091685617
O          -0.40295147485425   -1.89136856868531    1.81518319499175
H          -0.41148874338339   -2.41793048401483    2.61543085448555
O           3.46797812204599    0.80329742935684   -0.09970818538465
H           3.75712138066064    1.71102577756047    0.00463166199124
O          -0.09288023562457   -0.18265934980704   -1.98710388701235
H          -0.81252506507872    0.42695853691564   -1.75170255719506
O           2.51474343806896    0.48484804349411   -2.61209954205189
H           3.25217703623676    0.69186115933368   -1.04976818801360
H           2.84416523329957   -0.17169329608063   -3.22763797494308
H           1.55985146513573    0.32143483983503   -2.52325961651935
O          -1.55468815518455   -2.03292586602735   -0.77184531144058
H          -0.50369123138860   -1.06123756898654   -1.82455896878979
H          -1.16394776632796   -2.29630955856222    0.07198395552332
H          -2.04654679648110   -1.21688870733124   -0.57806930420200
N           0.92796851056095    0.10451924022673    0.51974239324928
H           0.73287670802169   -0.74988379647089    1.06516022465230
H           1.93787396807482    0.35783365659164    0.51057969477214
H           0.61596234372962   -0.04567139321754   -0.46880149560763
H           0.31721189273198    0.87516053650695    0.91642432356468
