    26
        -50.45147872  Gyration_radius:  2.46525756751 Dipole_moment: 6.103
 S           1.17948912348411    2.08912471409425   -0.01019763883984
O           1.50279111733061    0.80011459589193   -0.58546557938480
O           2.28016756878970    2.90698730115054    0.34108968252661
O           0.24551331125739    1.84240317805863    1.21015490648547
O           0.22321302415452    2.83389363195022   -0.95442122209628
H          -0.58163322769362    2.23639258655846   -1.01650629298604
H           0.50336152284130    1.02122535532116    1.73362507416498
O          -0.25643137684191   -2.57207509611937   -0.94985592239362
H          -0.11534838363842   -3.36246846725849   -1.47231311310006
O          -1.81686078985091    1.26599862201192   -0.98298508474930
H          -2.57568531883118    1.80796159987234   -0.76004629527879
O           0.83192245374949   -0.29060856358598    2.50906454452501
H           1.52935902627021   -0.12462228663449    3.14575932650703
O          -0.05260854275635   -0.39253914497341   -2.43177697568225
H          -0.84944493550808    0.13557635477403   -2.30614291964264
H           0.62863782116767    0.05087749171765   -1.89237681021752
H          -0.19889532116351   -1.80745487369236   -1.58063520263850
O           1.83259437059708   -1.62908553601774    0.54498809641109
H           1.11402915063564   -2.10576330453490    0.08475064288312
H           1.96066135167165   -0.81654811564608    0.02632452819037
H           1.22921179885124   -0.89730320069322    1.80765278160263
N          -1.73891168901819   -0.66557055284997    0.78436631326093
H          -1.75908285175288    0.54199547554228   -0.26350982510909
H          -1.34107013948729   -1.46472312206567    0.29789975707842
H          -1.13452804264952   -0.45784051228317    1.57096514179627
H          -2.64045103162972   -0.94594812059340    1.14959208669514
