    26
        -50.45442021  Gyration_radius:  2.45708940828 Dipole_moment: 5.536
 S          -1.78441014392807   -0.07707929184606    1.56618120327391
O          -3.05622421269918    0.10515031861567    2.18276833458573
O          -1.70193150964267   -1.09782417062565    0.53703736600768
O          -0.79876304616090   -0.55448453337274    2.73834129991974
O          -1.16680515001885    1.17135659588603    1.07487619381872
H           0.45564952330317    1.26413568275424    1.28728576028863
H          -1.40344618388506   -0.48533557607121    3.46826686187833
O           1.43864778448079    1.35246436445308    1.26843640177291
H           1.64817584711944    2.11769384708955    1.80579073205635
O           1.31373836745497   -1.12085452713561   -1.96395711327353
H           1.86254405598997   -1.77622140252877   -2.39420602611127
O          -1.01730840906847    1.67888124662859   -1.39408849570153
H          -1.17928642224332    1.56458077662285   -0.39013007911456
O           1.49099665871207    1.52834613597908   -1.42045861959842
H           1.64893602374923    1.48993438927064   -0.45224763782343
H           1.58539772591966    0.61017792851195   -1.74188943292246
H           0.03276960904835    1.73804734824998   -1.48136931228195
O          -1.36991699949999   -0.69735021311908   -2.05053182170337
H          -0.43992768361816   -0.97617177971010   -2.17680800230815
H          -1.61592890374208   -0.99552211391072   -1.14592781459603
H          -1.25437934665885    0.71649856452402   -1.79403627735357
N           1.08611240288639   -1.55162786319956    0.59325116182458
H           1.28232024441125   -1.35474780229675   -0.97408298838947
H           1.38983046091012   -2.39655550592015    1.05971665087408
H           1.48020647613365   -0.76416094782766    1.09711472012686
H           0.07300280103756   -1.48933147102513    0.70066692473269
