    26
        -50.45966331  Gyration_radius:  2.59373071821 Dipole_moment: 3.957
 S          -0.03317382864346    2.11539483320585   -1.19861655663297
O          -1.19398125225823    2.02397329581430   -0.31443962570793
O           0.12794883192939    0.90487867054363   -1.97036053978571
O           1.16042947392861    2.54280268715099   -0.49363821111482
O          -0.35836169455189    3.27577782486202   -2.23707488913474
H          -0.25396943764257    4.05755984143837   -1.70377045547806
H           1.64476196815830    1.44357761596152    0.56763956184416
O          -2.10512480768906   -1.16686986171261    2.30147984639032
H          -2.41923061171605   -1.99941133125158    2.65665955465761
O           0.16280975842018   -2.20899444791486   -0.72074990552153
H           0.10756605348666   -2.87210075680229   -1.40949855233410
O           2.00003210559674    0.72155196018886    1.14726760652252
H           2.63112162038937    1.14239744548559    1.73315773515824
O           2.14250162459230   -0.64368909534391   -1.26217199291103
H           2.36669147093515   -0.24611806518794   -0.40578977011032
H           0.97228031649237   -1.65287143081641   -0.94828319961529
H           1.53901927902307    0.00258384175888   -1.68597013638122
O           0.49443483814823   -1.43686509125812    1.97831981415809
H           0.48186052942485   -1.91740958975268    1.13923855266317
H           1.00280200992412   -0.62703968517993    1.79890121380488
H          -1.11557265431039   -1.20345299676553    2.34863990400126
N          -1.88345133219971   -0.46253307911698   -0.27347654080545
H          -1.59517200791620    0.57384911881620   -0.29594983948786
H          -2.12759024905191   -0.71304402767862    0.71721649743123
H          -2.67259793619526   -0.59718153375372   -0.89608938231207
H          -1.07603407826831   -1.05676613269647   -0.57264068929943
