    26
        -50.45442020  Gyration_radius:  2.457101311 Dipole_moment: 5.535
 S           0.10209643648933    2.19821434071726   -0.89480683966295
O          -0.27772016340183    3.47879473029514   -1.39159001368015
O           0.05971910169742    2.02164234319259    0.54563687035522
O           1.63821233140549    2.00810660430641   -1.31572641452427
O          -0.58457197311303    1.06750830707485   -1.55171246004492
H           0.35578196080845   -0.24972926421270   -1.80889409371506
H           1.74583277571276    2.80646690832403   -1.81995504068193
O           0.06579554135040   -1.58284903463651    2.08071354495943
H           0.44700345969978   -2.02010725516144    2.84183221132332
O           0.81308379791180   -1.12039178906238   -1.89455426351342
H           0.83841165472155   -1.31737570706102   -2.83195526258391
O          -2.36754985737878   -0.26017883860776   -0.35417730080786
H          -1.74767814200013    0.33622570971634   -0.90845403178610
O          -0.97636466371373   -2.35213986887086   -0.29981072873426
H          -0.61809906363572   -2.27383706533886    0.60616605003479
H          -1.90214133370721   -1.20722974683515   -0.37570298489603
H          -0.25277600828113   -2.06639820320391   -0.89873109147937
O          -1.64262815054735    0.52312591770637    1.89585313359382
H          -1.02756679982526    1.20798131759930    1.54892310511701
H          -2.20931010041450    0.08075506227175    0.64642010057039
H          -1.07643575783144   -0.23029722230543    2.16122086049278
N           1.82115069274972   -0.17572841545224    0.77103357562872
H           1.91051515335166   -0.55050901204984   -0.16751139573132
H           2.75229499459529    0.03337507947007    1.10715675408361
H           1.32010646025652    0.70939472127119    0.68531772433421
H           0.81283765310073   -1.06481963915011    1.62330800134639
