    26
        -50.45909987  Gyration_radius:  2.53992316554 Dipole_moment: 5.603
 S           0.75621608290552    1.99916491218734   -1.03253594729711
O          -0.28207250872323    2.76097148541081   -0.33530134337550
O           0.37106587055193    1.52543430270948   -2.33335434439557
O           1.26410811790083    0.95062014118792   -0.15702492539027
O           1.95849646590531    3.01709378771992   -1.25466200023175
H           2.10241526189581    3.36007994936623   -0.37809575167490
H           1.68397939405614   -0.54458227689776   -0.52119044387460
O           0.12533296162484   -0.36234458742868    2.89524850691730
H          -0.20130461690096   -0.73594887571876    3.71481001848898
O           1.88866247651261   -1.48981047256389   -0.74795730522639
H           2.84295967159418   -1.56756631559828   -0.73213048169949
O          -1.97113355631335   -1.14050935874468   -0.43190225784871
H          -2.82633025908874   -1.33113372462460   -0.81881156624175
O          -0.29826933275983   -1.02725612825682   -2.37356699551056
H          -0.08971025489786   -0.07381095986701   -2.48931675737761
H          -1.32506253100805   -1.09923143642784   -1.21221348477309
H           0.51516378950412   -1.41467282391482   -2.01515409334365
O           0.08566679296786   -2.31308610877485    1.12900375669682
H           0.23826259128888   -1.12698813098862    2.27014261793979
H          -0.71923214378698   -2.10460979679632    0.63398233549903
H           0.81279711609681   -2.15334192650609    0.49866914401351
N          -1.39982382521774    0.97877537218270    1.14957045874613
H          -0.91204412669953    1.73792643269840    0.56297846019674
H          -1.67466013410511    0.19607184598186    0.51101461692030
H          -0.72939574279759    0.58725013210760    1.86024451976724
H          -2.21608755051005    1.37150455156664    1.60755327307798
