    26
        -50.45406809  Gyration_radius:  2.52425836326 Dipole_moment: 5.856
 S           1.08906408876810    1.88443299350588    0.70525022271748
O           0.37079174157577    2.99068569587556    0.13175082663129
O           2.21738002088536    1.43246343987411   -0.11992956868647
O           0.27226809284422    0.75770860219132    1.10567846651807
O           1.74851802141834    2.44242111512644    2.05017958185239
H           1.81458081410255    3.37351370338968    1.86337684390635
H           0.49990041116057   -0.75065604754942    1.49216978945959
O           0.74006398438399   -1.71349029859776    1.58980919675590
H           0.90368396052975   -1.85095571693537    2.52343749050504
O          -0.36884414321464   -0.94187888671910   -2.04803324846526
H          -0.73202668524122   -1.29621304033107   -2.86027771855708
O          -3.01017881842854    0.08678230229266    0.58626757178680
H          -3.89065494740735    0.20370932297841    0.22642499525961
O          -1.52966929413709    1.53357654719391   -1.10469495514038
H          -0.90059016287042    2.13055864634667   -0.66198390770827
H          -1.00332817545572    0.82988000825252   -1.50666587393664
H          -2.43233856701809    0.71088928071894    0.08523435099260
O          -1.54878512080866   -2.04675316071801   -0.04300356853656
H          -2.15187265266613   -1.32711165622332    0.26085416228527
H          -0.88087558813201   -1.37984411486272   -1.29242120819906
H          -0.85204861892096   -2.08836009645074    0.62757748567583
N           1.95085798601638   -1.02481115569539   -0.73388363529474
H           1.12950336697267   -1.03755226280419   -1.38419871964716
H           2.12008686719915    0.02607092600512   -0.48184877947251
H           1.67068637240263   -1.50301709650286    0.14235141915226
H           2.77382702604636   -1.44204904035657   -1.15342120985731
