    26
        -50.46943931  Gyration_radius:  2.47846432266 Dipole_moment: 4.355
 S           0.08898205147395    1.87630836991782   -0.87464530240281
O          -0.68752278035008    1.84315828698119   -2.08906751933979
O           1.26375622034317    1.01226855537849   -0.92488958478184
O          -0.69452122387541    1.64011942054374    0.33011381511357
O           0.63065951140542    3.36262654199833   -0.73543561384651
H           0.69877259532375    3.63956043661847   -1.64317322442969
H          -1.68096247035066    0.41099526273609    0.45071937854941
O           1.58969356766563   -1.12824010914001    2.51210269342465
H           2.50472567145973   -1.40911930971605    2.46166608338033
O           0.73359696705671   -1.48671665786127   -1.61087750560094
H           1.08991236553800   -0.58661731473197   -1.44935506700806
O          -2.24685780634759   -0.40176117895460    0.55463662897634
H          -2.94302593542431   -0.15666466013244    1.16609058190333
O          -1.68725966486836   -0.62802204615509   -2.25180706036736
H          -1.40437652705947    0.30248499705411   -2.35449833965178
H          -0.13239198036917   -1.31978273207336   -2.05417882339446
H          -2.17456384180788   -0.65546426125987   -1.41942821294709
O           1.62666594001056    1.34789822006997    1.65787231604275
H           0.72907896235785    1.70455183000841    1.68185931828895
H           1.59753542700020   -0.15801916326091    2.28100470787838
H           1.76665183108917    1.21464484520585    0.69996508405415
N          -0.13952059667922   -2.10613130004464    0.73868695858522
H          -0.34564786427704   -3.09097364211548    0.86354583845372
H          -1.01112601110213   -1.53945129896569    0.78944070618310
H           0.54079494061869   -1.76785325927275    1.47113438489518
H           0.28695064120943   -1.91979984284812   -0.25148221198620
