    26
        -50.45406814  Gyration_radius:  2.52648419158 Dipole_moment: 5.864
 S           1.19116500153406    1.94163145146171    0.27136729606449
O           1.35017737351965    2.49032855062534   -1.04870053029722
O           2.30740164862646    1.07819823626105    0.68042072999858
O          -0.07460821058415    1.28375854567243    0.51997243512063
O           1.23611702988884    3.18864972015299    1.27039677875107
H           1.73743959550942    3.82293709960714    0.76788786038808
H          -0.67469068762636    0.29074090499412    1.58365338211110
O          -0.90797864084899   -0.42841462292317    2.23360660490088
H          -1.31708048442713    0.01265890675513    2.97893205470427
O           0.41302900140955   -1.98121788641590   -1.06800490367584
H           0.41773296799242   -2.74587275138294   -1.64457698411112
O          -2.58043962975643    0.41023658393498   -1.60938671877470
H          -3.02442042015984    0.29231805644620   -2.45040331822892
O          -0.01902533262536    0.57274187087958   -2.35495797877299
H           0.46111461211609    1.31884595226638   -1.95362264498328
H           0.32713300377594   -0.23027054429225   -1.94380469254756
H          -1.64061613778696    0.61563262641545   -1.83051213779158
O          -1.94774046263036   -1.67660207415784   -0.08334851129167
H          -0.53645787809778   -1.88472983905750   -0.73093098658795
H          -1.77443039967638   -1.30776707488332    0.79464437705209
H          -2.29400450140279   -0.91960940791011   -0.61322826048352
N           1.48184534429586   -1.25869187308961    1.26615580554014
H           0.63189377464558   -1.11959654859088    1.84353995193147
H           1.88182163732284   -0.26480282833752    1.04498442187068
H           2.17072375105475   -1.83991358058196    1.72980288165481
H           1.18389807393168   -1.66118946384640    0.34611307745689
