    26
        -50.46422802  Gyration_radius:  2.57423208721 Dipole_moment: 3.108
 S           0.24098035537687    2.25112692399270    0.46353193011958
O          -0.77243657463363    2.38120029372110    1.48587422070607
O          -0.14659803708485    1.32613341636338   -0.60524651373681
O           1.55828834298133    1.91320684610887    0.96563656130996
O           0.33904251207436    3.68507004540633   -0.21003293897606
H          -0.32317243483541    4.15465600837560    0.28662784513918
H           1.98258556403565    0.45224934768258    1.43684056432007
O          -1.68792933734482   -1.79109266727235    0.50399181133125
H          -2.15219303181195   -2.49795709479372    0.95318543667359
O           2.12305938131869   -0.48850617206653    1.72426670062278
H           2.84498415662982   -0.46300866214867    2.35359528567859
O           0.29305314692079   -1.55278253621235   -3.10864522863253
H           0.59618558354438   -1.01095384153041   -3.83799295909552
O          -0.66560125735668   -0.14984612087904    2.26234813208604
H          -0.78307134433710    0.80140034525044    2.06202701635578
H          -1.44271850528270   -1.12792855030127    1.20412520439208
H           0.28869456364664   -0.31158330588544    2.27696156062306
O          -1.82181962796365   -0.35855898883260   -1.97653761778500
H          -1.37915480163836    0.42168554752423   -1.60511051417139
H          -0.58056315973341   -1.17832313009279   -2.83765065084309
H          -2.06962944782487   -0.89067660686963   -1.20840912042110
N           0.74250893672226   -1.13867087202953   -0.51811968539260
H          -0.08975766487712   -1.63696150256909   -0.14824771276115
H           0.90264614953638   -1.44335990864543   -1.49990799060655
H           0.46776924658120   -0.11200615088061   -0.54868287000907
H           1.53484729053532   -1.23451269184893    0.12557150305536
