    26
        -50.46705691  Gyration_radius:  2.51880959314 Dipole_moment: 3.181
 S           0.95242291576983    0.58224957174199   -1.95125216955076
O           1.62754353747149    1.84623547028118   -2.00638561313353
O          -0.48747640324724    0.66947994261852   -2.17983812569605
O           1.24056965998503   -0.18840537358439   -0.74386811792183
O           1.53130709925763   -0.30822246433304   -3.14223929864497
H           1.77977212424246    0.32609510026177   -3.80779739633665
H           1.28695973281532    1.36589301632278    0.10424115341759
O          -0.81651465409326   -1.79658017344589   -1.37637772672272
H           0.11241325395591   -1.76566860138062   -1.10719411608963
O          -0.51904478317356   -1.56484297459937    2.87383124137834
H          -0.29910355176728   -2.48140901183978    3.04589323949767
O           1.12007310045843    2.10895490378131    0.71045324872845
H           1.44656553079389    2.87660360024964    0.23390159665132
O           1.67747305245833   -0.44420007416764    1.94819527372709
H           1.63446217242284   -0.53954302985818    0.98234656956113
H           1.66848591167288    0.50812131615381    2.09518678326554
H           0.33211615330531   -1.12560162326944    2.61431558307713
O          -1.48958577680003    1.64087944036559    0.08654718035606
H          -0.66332281267493    1.95296220162581    0.50250756475240
H          -1.23652400952163    1.42107215504014   -0.83486749354497
H          -0.89943656700843   -0.96487113097233   -1.88963062735807
N          -2.01912493366371   -0.83485081582301    0.78207509674706
H          -1.50184582875363   -1.13270357144224    1.64644557552694
H          -3.01090710197096   -1.02659846268530    0.87021528523725
H          -1.85791641316625    0.20933160042766    0.60520387406189
H          -1.60936140879056   -1.33438099141566   -0.06190855097797
