    26
        -50.45509202  Gyration_radius:  2.70194332476 Dipole_moment: 5.381
 S          -0.82566423216269    1.44794631460286   -2.31299067512367
O          -0.72264691679542    2.48063526586811   -1.27640352950314
O          -1.34023109563856    0.20782903849403   -1.77743595596579
O           0.42223745973066    1.28946645714015   -3.03916737278931
O          -1.89444979047135    1.97815880683018   -3.36320044427358
H          -1.45033982395493    2.70543911632393   -3.79115109062968
H           1.22396403426535    0.17930072911025   -2.14795893348895
O          -0.90341806659507   -1.86636138084847   -0.12563302823668
H          -1.14002902588065   -1.19339038233422   -0.79292507357471
O           1.12104666805012   -0.39857537684612    3.04295888622433
H           1.47971235557661   -0.80581807223741    3.83191195367718
O           1.45081210382065   -0.50128609663748   -1.46636434559967
H           0.86364493059859   -1.23790122970737   -1.66713088521451
O           1.57747021063710   -1.96807109334305    0.96938938933604
H           0.67839862971005   -2.09033427104598    0.59550789920516
H           2.10841459157372   -1.63177761954217    0.24084211274761
H           1.37556771539685   -0.99586961621163    2.29330691006732
O          -1.43289260994543   -0.34346161175855    2.24712027086272
H          -0.58771432865305   -0.44299820262104    2.73805414299830
H          -1.45808330130055   -1.66962550077472    0.63626584464963
H          -2.01728846734743    0.19147020291449    2.78502807161350
N           0.30414568498309    0.93823967184346    0.49938897623492
H           0.80267750180423    0.28734231764130   -0.16532969254033
H          -0.45885931961647    0.43151689224848    0.98768863761185
H           0.94990112066501    1.31324428316305    1.18974021959087
H          -0.12637599848384    1.69488136770511   -0.13151225788270
