    26
        -50.45509215  Gyration_radius:  2.70177263088 Dipole_moment: 5.392
 S           1.87396917752202   -1.05346886399648    1.87178435694441
O           0.57529179085676   -1.29481138194166    2.50993923017516
O           1.89304754911257    0.20846451455278    1.16699815606355
O           2.28688007749526   -2.17896638820478    1.05182909395269
O           2.93330816854994   -0.94091885275037    3.05152942460401
H           2.98227625609716   -1.82779796412221    3.39847662005564
H           1.61732041970143   -1.83755876209829   -0.39894035313735
O           1.14777024367709   -1.37834864755077   -1.13909706227782
H           1.70583331753751   -0.61795554653364   -1.33394035820898
O          -2.94458343296848    0.54774400907914   -1.30827808073075
H          -3.62863431722912    0.80626367242719   -1.92649375730773
O           0.91918019645510    1.63733357521194   -0.88981362211677
H           1.37930687707530    1.19371715094579   -0.15112451199365
O          -1.60247761822515    2.11954669608574    0.39034984474145
H           0.29514914058229    2.23907488195809   -0.47110078410495
H          -2.11932776704346    2.47209542561107    1.11527361742996
H          -2.22991585161124    1.73025774228032   -0.25788575343675
O          -0.66379130555761    0.25513599706266   -2.60617177972266
H          -2.13301059659788    0.39079935856622   -1.85612869934503
H          -0.06143149137797    0.85052602544251   -2.11035517355941
H          -0.23016849911090   -0.60371607802513   -2.59834366980502
N          -0.82471636799895   -0.54468952544616    0.49390121468437
H          -0.92714784893437    0.48794310741386    0.52011520051136
H          -1.73392950888115   -0.96534732674191    0.31895476062540
H          -0.13393438112531   -0.82033829182651   -0.25498450655219
H          -0.37626420799522   -0.87498452738665    1.41350661250007
