    26
        -50.45490202  Gyration_radius:  2.54671407756 Dipole_moment: 5.624
 S           0.47669908822355    2.31174572831728    0.04942564840653
O          -0.14543866017369    2.74668723631282   -1.17436135138958
O           1.86960335512436    1.88099309002270   -0.13512564487752
O          -0.26647871186790    1.32178939420706    0.79975092431281
O           0.55386838250511    3.60567860811481    0.98085234772410
H           0.56304883462934    4.30945450316681    0.33974497307582
H          -0.04561089971261    0.09495012091314    1.77308842602065
O           0.24563298893226   -0.69281848680374    2.30786437792280
H           0.01758084572822   -0.49246273167404    3.21635222133338
O           0.57004571516227   -1.59388034490185   -1.52443311231588
H           0.82720061713958   -1.88434002965306   -2.40015433861997
O          -3.02332776345426   -0.64822389100195   -0.34424568902206
H          -3.66230244801984   -1.15465283287683   -0.84784392334343
O          -1.04237876682382    0.34170214053866   -1.92200532517728
H          -0.74498564878087    1.24328258550807   -1.69621246514776
H          -0.05747763666521   -0.80412873246721   -1.67633470367432
H          -1.80532826403831    0.15425419124046   -1.33431759570051
O          -1.15802569583807   -2.38376016439131    0.57242582763320
H          -0.73293299962513   -1.88277247181819    1.28561113442473
H          -2.43185599194452   -1.30225381080412    0.08746658703310
H          -0.57349710221001   -2.29444688871146   -0.19370974802988
N           2.14051804871060   -0.59889249908098    0.37729165561721
H           2.08107168809083    0.47369667801609    0.17598626589358
H           3.10267009224766   -0.91256983912154    0.43448393589092
H           1.62269670292255   -0.77260797543047    1.25682053163780
H           1.61900423975495   -1.06642357760870   -0.40842094962289
