    26
        -50.45288165  Gyration_radius:  2.71790616536 Dipole_moment: 5.378
 S           1.78003284487943   -1.08030267895533    1.97812279254915
O           1.59646577792730   -2.05009561535891    0.89285077420948
O           0.89363691594693   -1.27145077012306    3.08621456848821
O           1.72536572257372    0.28565525911710    1.43552436921165
O           3.26599904930012   -1.29046720350953    2.49469591972461
H           3.79583498245985   -1.26066721028073    1.70270600092767
H           0.15163457649882    0.69549504945126    1.93476089609712
O          -0.81165338136275    0.57321097404152    2.09308065368134
H          -0.82294723253913    0.03689126033259    2.89414122223735
O           0.90932001579496    1.11908835301523   -0.96997672032673
H           1.41542043983474    0.94606477149544   -0.15054341087267
O          -2.46053621863295    0.05840870050706   -1.80481906053396
H          -3.23945626644271    0.32973323302592   -2.29195340221728
O          -0.17613268486153    0.15675084588223   -3.28744761944962
H           0.37170538687205    0.63460508952074   -2.64167064773973
H           0.40134936466597   -0.46542705503412   -3.73130120939913
H          -1.71775656232264    0.09719002391703   -2.43852143616763
O          -1.43611504279088    2.14100624839795   -0.18627119352079
H          -1.44264307054381    1.86867338783708    0.73948511660181
H           0.20312206576200    1.75486505765814   -0.71565733467942
H          -1.95640492124464    1.47974115897433   -0.67182706330118
N          -0.51872816590057   -0.98154251386604   -0.08917978739728
H          -0.04528400243431   -0.23063107591731   -0.65580243189487
H          -1.25916451961137   -1.42933190828300   -0.62304004647378
H           0.27229963682318   -1.61870582934567    0.24727897530354
H          -0.89536471078287   -0.49875754248212    0.75915007496143
