    26
        -50.45288150  Gyration_radius:  2.71820228763 Dipole_moment: 5.391
 S           1.45739424328998   -1.20564651913498    2.16237457051986
O           0.03047612820644   -1.52189264186880    2.28885385104547
O           1.86703534945592   -0.05425087318375    2.90844413274153
O           1.82096508492438   -1.12020949837190    0.73978922557835
O           2.22941372738791   -2.46639249244492    2.73990366843332
H           1.84069574189854   -3.20803189400702    2.28412449403621
H           1.88778921133980    0.57358830637863    0.59531228617208
O          -2.14882182002756    1.74552710493184   -1.28494805701338
H          -2.62116291458754    2.36278070039157   -1.84486140209241
O           1.60433955388039    1.50736584059295    0.72017452977867
H           1.88612990370201    1.68957669373362    1.62398624071641
O           0.23593203103896   -0.98969999170646   -1.40964894074759
H           0.91803382292867   -1.23121229934848   -0.75098804635500
O          -2.41068500886344   -0.84802006379926   -2.08130356401722
H          -2.90113266275025   -1.62477580977428   -1.80991714672418
H          -2.34287401264380    0.85572102472190   -1.63861602630419
H          -1.46855691026884   -1.08588604372572   -2.04531102375384
O           0.60259992901729    1.60896732441714   -1.93086379505993
H           0.54838690540281   -0.15156545252039   -1.81900690744165
H          -0.31674127355106    1.84407108934553   -1.72286074446954
H           1.13078856661837    1.86628544943463   -1.16532954064312
N          -0.80967216931853    0.30842673543136    0.69993270575504
H          -0.03156479202671    1.00244517424657    0.78651882146836
H          -0.65469913435367   -0.42195601965777    1.46638530898032
H          -1.71789553023787    0.76544117120203    0.69328451875194
H          -0.63617397042397   -0.20065699521980   -0.20542914931354
