    26
        -50.45406785  Gyration_radius:  2.5276590517 Dipole_moment: 5.879
 S           2.12144353752787    0.67044437213694   -0.57138901241037
O           1.64482105697515    2.03615346021818   -0.31268897476044
O           2.26035171216301    0.37218746716548   -1.97156420582180
O           1.34992296609817   -0.28799969129498    0.19202256558208
O           3.59974601065670    0.61935883959671    0.03457133034749
H           4.13014307474532    0.81968368386148   -0.73001614617805
H           0.63043464167207   -0.34944613759344    1.59080724024589
O           0.11106542074730   -0.23308190735725    2.43382280658631
H           0.66879444663285   -0.57025577639656    3.13566424847151
O          -0.59557454167479   -2.89561345200556   -0.83153748803229
H          -1.04603013339792   -3.47153259408942   -1.45100398644863
O          -2.09869599254708    0.66369809519413   -0.62602774852215
H          -2.98766128117552    0.73866406769415   -0.97425215552192
O          -0.18559324451226   -0.70648672485134   -2.30846339478911
H           0.72353535380783   -0.36090680671092   -2.26021413922728
H          -0.29327216836433   -2.11912530438852   -1.36077769544481
H          -0.74498607326439   -0.07642848871192   -1.83538926475322
O          -1.95747070583541   -1.40481495438486    0.90234383625378
H          -1.47887764959737   -2.05008751354273    0.32941472125496
H          -1.31109487404961   -1.13867867875320    1.57210792675793
H          -2.08467977901481   -0.17495500768362   -0.05947311113440
N          -0.51070630773649    2.00725861789348    1.04284593166220
H          -0.78281510554101    2.91127640986417    1.41167878709952
H          -0.36339827064368    1.30542353294895    1.79149584258186
H          -1.22361428408073    1.62401228851654    0.37783647430730
H           0.42421218040499    2.07125219267165    0.47818559189589
