    26
        -50.45514043  Gyration_radius:  2.75115128641 Dipole_moment: 5.669
 S          -2.56353478934570   -1.33700999308533   -0.23979807335493
O          -2.84847771534998   -0.03686695536169    0.38048094676640
O          -1.47607685100409   -2.03057434878512    0.40213059054652
O          -2.39883666341836   -1.19511442480705   -1.68003633975580
O          -3.86989872535998   -2.21162401510614   -0.02347265526445
H          -4.53366452376388   -1.70625667679534   -0.48300583769609
H          -1.11001150029517   -0.38755341178048   -2.09088938895782
O           0.84035093990559   -1.08392906328257    1.19498042657650
H           0.03391302909643   -1.61585545889225    1.02043741338208
O          -0.34420150528471    0.22246232034299   -2.29099228212847
H          -0.51690926619193    0.57481248400794   -3.16517689125242
O           2.17943745259764    2.01532888916712    0.10558228934804
H           2.95447763045364    2.56263256733616   -0.02356695486549
O           2.24827476516881    0.80355334106467    2.52575561992511
H           1.71720755114889    0.03057928825116    2.25765759271950
H           3.05582415287931    0.45207505205050    2.90342617050591
H           2.23922980370856    1.66046384787952    1.01807400660935
O           2.06894350864074   -0.50953254117695   -1.09737706638384
H           1.38376902018318   -1.13911628779087    0.37439388738890
H           1.31124345483202   -0.46548373208037   -1.69861416885297
H           2.22363961585228    0.40840896033962   -0.81598556057415
N          -0.51481485569855    1.03180593163021    0.29530503202412
H           0.08109614248759    0.29693500460534    0.77016048230119
H          -0.31249992363196    1.95578306872045    0.66329667074664
H          -0.31442768692234    0.98536990104847   -0.72194110085785
H          -1.53405306069801    0.71870627244738    0.41917519113346
