    26
        -50.45514042  Gyration_radius:  2.75116775561 Dipole_moment: 5.666
 S           2.79733778611365   -0.11619951278274    0.76101090216301
O           2.42345165541382   -0.50794144398553   -0.57407528243558
O           2.07201197392157   -0.86728020490989    1.79349847586318
O           2.69668835421936    1.31688046036723    1.00106871744513
O           4.32706586813337   -0.49430036956764    0.94906422474495
H           4.50658711636777   -0.18989375101596    1.83360611747326
H           1.24033327117014    1.88678839571113    0.80828401579444
O           0.28342740135405    2.17321134945113    0.78093716567413
H           0.24033330848785    2.97776426317887    1.29958633319439
O           0.02766287355582   -0.95072591622832   -1.55153438947831
H           0.99115648366008   -0.88210264280365   -1.37656514809346
O          -2.96700073776174    0.13357143474475    0.01247954184039
H          -3.89378851536541    0.35683522531897   -0.07750561636686
O          -1.07385670614043    1.47420393176660   -1.55351288599361
H          -0.50279101412281    1.92882254025058   -0.91725939121359
H          -0.26518678335007   -0.04592879971247   -1.81103028118719
H          -1.83333493143417    1.15997004263049   -1.03371977428683
O          -2.38954181583781   -2.14430344673372   -1.33200240474362
H          -2.84325104729414   -0.72665516208865   -0.44233039857763
H          -2.77015333402840   -2.34784512221116   -2.18757639971053
H          -1.45527082201076   -1.91941091268685   -1.49925062210873
N          -0.34928228471406   -0.45468519255634    1.04373687915326
H          -0.32246999028608   -0.76464786851891    0.03196714688291
H          -0.38359583655142    0.58245249077204    1.05101161410309
H          -1.15370088019070   -0.84766947496987    1.52184594252159
H           0.59716859671708   -0.73091031337996    1.46826550742408
