    26
        -50.45514044  Gyration_radius:  2.75125865919 Dipole_moment: 5.667
 S          -0.33814467649541   -2.58698257910207    1.26917070574470
O           0.43339667873999   -1.77496151346302    2.21869663176530
O           0.19664138481079   -2.53368086474480   -0.06759053935697
O          -1.75564138932255   -2.26093309209683    1.34634658840234
O          -0.19628210672130   -4.08573363147783    1.77110523785363
H          -0.57990662233259   -4.04790118448693    2.64207826633681
H          -2.09813524101611   -0.81086414250745    0.83392771652101
O           0.29197852166314    2.90523519749769   -0.54561822586659
H           0.21083602305897    3.81714341502664   -0.82623885847096
O           1.04441416270232   -0.44961249455065   -1.41971201367333
H           0.82663388640058   -1.34391395916238   -1.07833996760187
O          -2.24298996363800    0.15064792377941    0.60356515434214
H          -3.06761673632661    0.39531570451934    1.02582272383627
O          -1.19151362509680    0.92904718862733   -1.86048984237989
H          -0.80959403097071    1.72893965704532   -1.46042480002009
H           0.21177402468113   -0.10093705909514   -1.81573542722949
H          -1.76769050893713    0.55528942966950   -1.17793223214083
O           2.55371034622111    1.79186578593429   -1.53286897047879
H           1.15582388516099    2.58670858459027   -0.88404481571928
H           2.20957926719513    0.87929753838784   -1.54667351752703
H           2.87073144195236    1.96895311024066   -2.41968232619459
N           0.42222254092452    0.48612590515724    1.00110792901257
H           0.53069629788584   -0.38629064764912    1.61703683816182
H           0.79708140288074    0.22377603060535    0.04655873346765
H          -0.59755451029018    0.65057114367979    0.90080603871881
H           0.88954956690708    1.31289455357181    1.35912897245716
