    26
        -50.44778430  Gyration_radius:  2.50270038628 Dipole_moment: 3.960
 S           0.33250293447821    1.96027891920189    0.11960950312349
O          -0.89312053635946    1.30524384734094   -0.27664611546070
O           1.47712795636963    1.03642511207717    0.01991467745605
O           0.29041306716933    2.62876672496290    1.39424703578017
O           0.60624926386768    3.09161786680786   -0.96079583913129
H           1.02221375252010    3.77515100270146   -0.44532386531473
H           1.15446705524132    1.56649262932537    2.50808203436310
O           1.59896036637854    0.75129077424626    2.80302277968387
H           2.18615424517592    0.53346199480225    2.07348439007991
O          -0.56810177066551   -2.27071057449831    0.30078116205836
H          -0.28394974923557   -3.06121401621165    0.76175292755759
O          -0.00483408665789   -0.85469627362201   -3.25386658474314
H          -0.10770552558602   -1.60555476064995   -3.84084930013440
O          -2.02838088139743   -0.70862441925928   -1.62620206074281
H          -1.84124209533403   -1.39928022895373   -0.97777660424338
H          -1.77541657373683    0.12545539780255   -1.18707092661301
H          -0.87575531222956   -0.73401757231706   -2.77912121762209
O           1.25789833612478   -1.15927505847321   -1.06920612752984
H           1.37122713800073   -0.19224978215581   -0.62485000804437
H           0.53180968264525   -1.64222046378835   -0.50904524206712
H           0.85042635530110   -1.01143458908820   -2.00137009764249
N          -0.88119043460949   -0.39203665617313    1.99815900646863
H          -1.06073669456871    0.38668766011520    1.36698530917524
H          -0.73112426422605   -1.53954697124960    1.03664196247720
H          -0.00626387594816   -0.17240341541957    2.48200631794209
H          -1.62162834270726   -0.41760712752339    2.68743688311995
