    26
        -50.45980665  Gyration_radius:  2.483479235 Dipole_moment: 9.583
 S           0.89217629770109    1.50925647266650    1.63100647472070
O           0.98325602444712    2.54999058022307    2.59621102193488
O           0.14618427889257    0.31736038507657    2.05025117658834
O           2.40722861610274    0.94585502288044    1.45199803873381
O           0.50702492038435    1.90543637256385    0.28407372568014
H           1.21963543704715    1.02559704147390   -0.81168239667285
H           2.85684453029982    1.48392279521290    2.09462644939139
O          -1.30601340720471   -2.23813759643950   -0.70091890774114
H          -1.71965037134250   -2.98973307013075   -1.12535310633288
O           1.68426559991731    0.36188505436986   -1.39495829753772
H           2.55974145483616    0.71942435906469   -1.54848978699586
O          -1.94937995697288    1.55996095524446   -0.92693643157056
H          -1.13519098386651    1.91674240061435   -0.54046466660761
O          -0.90505791528867   -0.34861713985540   -2.40013774478905
H          -1.39314549929367    0.41054742069756   -1.98021345476685
H           0.02574522550904   -0.09930816850117   -2.35136876678873
H          -1.21848643452408   -1.52255533489360   -1.41122764114646
O          -2.38092437675498   -0.23561619070055    1.06706102348454
H          -2.34679663897744    1.02098657373824   -0.21415724518387
H          -2.16589131965882   -1.04108673243204    0.57773213334465
H          -1.58835027979105   -0.00512103481314    1.57611168684866
N           0.98269886110206   -1.47835411235194    0.41610990790939
H           1.41247393282692   -0.89164693838440   -0.33901167005046
H           0.13830121073550   -1.96209512602003    0.02507195533768
H           1.64986548008231   -2.13260803953363    0.80922813116328
H           0.64344531379255   -0.78208594976575    1.16543838104777
