    26
        -50.45980658  Gyration_radius:  2.48331058642 Dipole_moment: 9.585
 S           1.20310525035735    2.06568487094161    0.13561145281243
O           1.43114590023659    1.14524802004454   -0.98410869045885
O           1.59389615779518    3.41503813030073   -0.08701431719532
O           2.21165667448858    1.50249772018044    1.28058346348847
O          -0.12036600407408    1.85923300203666    0.70589948253197
H          -0.15187954829648    0.61447021485932    1.67167755701140
H           2.76614476163812    2.26631175237181    1.39755046005426
O          -0.05053245079466   -0.22415427405019    2.20361171220756
H           0.26795329827741    0.05136608017263    3.06412293339545
O          -0.56251662874790   -2.34764569083076   -1.17370653428744
H          -0.86792969964933   -3.21531463324891   -1.43825842469017
O          -2.39567370355230    0.99986560165510   -0.59984475983282
H          -1.73341444013346    1.49879514561687   -0.09784293797164
O          -0.65857621007045    0.19197558419950   -2.52768476568842
H          -1.96146344247667    0.80047840853311   -1.45319655653231
H           0.11898822203124    0.62643652734688   -2.14421162491455
H          -0.59964120376593   -0.74059669552650   -2.28016322097852
O          -2.14093798148135   -1.33141992678795    0.58516065114632
H          -1.24772324440928   -1.99157899342085   -0.51943015729940
H          -1.60684546754808   -1.06896711915171    1.34468217854639
H          -2.40494225422231   -0.47466484121136    0.15253255447423
N           1.40299008514868   -1.15435082239757    0.15868976530416
H           0.76030143486715   -1.77047595270897   -0.39582324468881
H           1.48648338245028   -0.21489691399518   -0.36256388036923
H           0.94377285502110   -0.92846426692054    1.07360483856461
H           2.31600426693486   -1.57487093798406    0.29012206537496
