    26
        -50.45966266  Gyration_radius:  2.59315970197 Dipole_moment: 3.972
 S           2.19030970298224    1.02280129547543   -0.25377962490009
O           1.70823199716925    0.52546516779994   -1.54153589638959
O           2.02799361084389    0.02781419815955    0.78084171182498
O           1.63962922422089    2.32476229448840    0.07135859222500
O           3.75587455225163    1.24707209056253   -0.42521778038395
H           3.78995236986507    2.02934074613530   -0.96687056334378
H           0.05479779166218    2.24284249384018    0.29912716846333
O          -0.80167542812793   -1.65735597776729    1.42871633693658
H          -0.65243007127415   -2.38323668667160    2.03534784868829
O          -1.98850774261135   -1.37214378586101   -2.29735785338806
H          -2.68820285799711   -2.02248819957089   -2.37101618230193
O          -0.90424042479810    2.17153122681991    0.54094390690880
H          -1.25005911729181    3.06482914366686    0.50810644262786
O          -2.48973296847803    0.00812065947826   -0.11065352995083
H          -1.98266048056751    0.82795850399249    0.02013877721756
H          -2.27106966920979   -0.74334602664264   -1.58509818653996
H          -2.13021580936931   -0.61608757318267    0.53445914966272
O           0.09907360359636    0.50284090184252    2.51671396202061
H          -0.37277572148431    1.21292723960395    2.05337493507685
H          -0.47923455245501   -0.83345414815753    1.91204173536551
H           0.94857979523071    0.41335189543408    2.03531783848102
N           0.36249836402662   -1.61782113499635   -1.03650477762747
H          -0.49247382306602   -1.61315782056705   -1.64672760256653
H           0.92704085898066   -0.72561372228674   -1.24366776674918
H           0.05261052322430   -1.61092579844377   -0.03714001579991
H           0.94668629267903   -2.42602699314543   -1.22091862555941
