    26
        -50.46422802  Gyration_radius:  2.57420137399 Dipole_moment: 3.113
 S           1.13206717153138    1.98060693933854    0.36957822141933
O           0.03499705794640    2.90300798027036    0.18341956252153
O           1.07266577302877    0.83619780278709   -0.54421569552769
O           1.30505860866923    1.52393523501302    1.73454455855276
O           2.43381953688524    2.79582163594298   -0.03090667096131
H           2.04751843600010    3.63301816445235   -0.26627823634361
H           0.38969685681449    0.41724720406122    2.42338075426456
O          -0.25993429174143   -0.25852866254408    2.75291600239960
H          -0.26926474834583   -0.16658887018123    3.70651123708257
O           1.21021280310794   -2.85293319370078   -1.60149170438227
H           2.13960340627006   -2.85953306929338   -1.83298764201627
O          -2.22827772253950   -0.67245584855508   -0.94072453379740
H          -3.16053207660033   -0.88221534697533   -1.00276217313414
O           0.08751751478406   -0.64838962096208   -2.63016965198072
H          -0.83144798009911   -0.63356283366787   -2.33024879189639
H           0.53568599532101    0.02140542964731   -2.08866257204788
H           0.80127413396309   -2.13338614961775   -2.14183634152219
O          -1.85704303070031    1.17841429771325    0.86600908055303
H          -1.46050928163698    0.74392405834565    1.63487651004034
H          -1.24358542061691    1.89558524866070    0.60486934667218
H          -2.15921153748169    0.12443572764022   -0.34868147272271
N           0.05746147020647   -1.42018706879892    0.32207963726658
H           0.58153568363751   -2.19087371218706   -0.14071602507492
H           0.01106366075868   -1.44851041316150    1.34580953692289
H           0.52626814149898   -0.50832934704821    0.04053862136659
H          -0.89664016073226   -1.37810559719057   -0.08485159761093
