    26
        -50.46422808  Gyration_radius:  2.57391274114 Dipole_moment: 3.110
 S           1.02879773177981    1.92511139196335    0.75871198258902
O           0.10994676734006    2.26480451670712    1.82143374057858
O           0.35535141347393    1.35865483574318   -0.41346960084168
O           2.12741565333419    1.07201912338272    1.16678088970196
O           1.64688350221942    3.30809871079189    0.28483908811404
H           1.18779669491712    3.90875758074962    0.86281666356252
H           1.98862357433526   -0.49553666299872    1.41372247918301
O           1.77558278240855   -1.45441295882333    1.56354138015272
H           2.44459605128778   -1.77789278282057    2.16823902754715
O          -0.23769467456072   -1.09759360828356   -3.30133584049071
H           0.25348498536691   -0.60218041382679   -3.95764521080076
O          -2.22626698041726   -1.11868786930257    0.31397902293529
H          -2.92250358379597   -1.66621309252293    0.67783324225485
O          -1.79573244482076    0.60296172629464   -1.93771209776933
H          -1.10615174491918    1.11006185573096   -1.47932300008375
H          -0.92142789231413   -0.47680355105657   -2.94907453746319
H          -2.23030857328310    0.09203928588284   -1.24149039781680
O          -0.71154998980867   -0.21854031951921    2.24365073945929
H           0.12041327098711   -0.71157992091037    2.19991657934251
H          -0.47627022501580    0.72976194548832    2.17852198790556
H          -1.76992238741016   -0.69385668325137    1.08960626578783
N           0.29142101309369   -1.24656483234405   -0.69753028815085
H          -0.66994689774929   -1.45927983539202   -0.36859727820803
H           0.34470432363734   -1.44535525282554   -1.71750711448336
H           0.40678783601422   -0.19652700662928   -0.57625451526288
H           0.98596979389753   -1.71124618215535   -0.10365319776325
