    26
        -50.46305574  Gyration_radius:  2.55461458425 Dipole_moment: 5.318
 S           0.54243249315788    0.81607765957171    0.64213339781407
O           1.04893654345758   -0.40823293442742    0.03149657936754
O          -0.50975583637159    0.51449048291453    1.61761167654373
O           1.70075882691736    1.45774903014285    1.45009913509206
O           0.08910027774689    1.77434999259650   -0.35483098004870
O          -2.50921601761794   -1.38270453375197   -1.37053818925635
H          -2.60330209362290   -1.25154734132787   -2.31509410731620
O           2.00349495595407    2.49385218159800   -2.03845108281125
H           2.04871472247177    3.45055971849252   -1.99636905437550
H           1.21888931655242    2.23662144784180   -1.50769786361342
O          -2.45258737223948    1.05364568544639   -0.30010562966139
H          -1.56379623839673    1.41766134776039   -0.48714032846344
H          -2.53554604990504   -0.47983105307853   -0.97120278795399
H          -2.47692646295287    1.01207282143255    0.66002464496530
O           3.38510255833746    0.88142688716886   -0.39682131838440
H           2.81959805048023    0.10159079484773   -0.50074688618604
H           3.10757730784175    1.49240259827104   -1.11201257746688
H           2.49031015140404    1.34132278215494    0.84603573367516
O          -0.34875581825875   -2.58581665146578   -0.40973148479917
H          -1.14888744560464   -2.24529710811180   -0.87652670779995
H           0.29467366209106   -1.84208599190841   -0.42997860788658
H          -0.70581748089341   -2.38881951665682    0.98013450217384
N          -0.93332339006511   -1.99096302279031    1.99800797596045
H          -0.31333592029217   -2.38902176257779    2.69508801446936
H          -1.90415043088117   -2.15211917436244    2.24575694387870
H          -0.74418831936448   -0.92738434953865    1.90085897206213
