    26
        -50.46313981  Gyration_radius:  2.55632208366 Dipole_moment: 3.401
 S          -0.71852901495903   -2.03590858158752    0.61270793575744
O           0.23148114609619   -1.63866773891193    1.61696424589479
O          -0.22065823337442   -1.70576728075379   -0.72949779781837
O          -2.06925514012987   -1.54106930288073    0.80911869824567
O          -0.83887590654346   -3.61452741673248    0.66079782967377
H          -1.71315347293338   -3.74290215427454    0.30838041227505
H          -2.10080289943024    0.04784503845019    0.68847282727828
O           1.06013116247836    1.35679307226064   -2.74229404729391
H           1.00874720203336    2.31330948189218   -2.74332602890505
O          -2.05078101283784    1.03664435752952    0.59948860389239
H          -2.92233444294632    1.36147059418177    0.83350454993897
O           2.09832987487573    1.54976097803071    1.29995541903954
H           1.98221471643319    2.48125449706220    1.10746703615050
O          -1.27945203845065    0.42494973518091   -1.99378408323064
H           0.13179449945549    1.02789599457627   -2.60221218267569
H          -1.00202884580460   -0.45853741647536   -1.68749575860614
H          -1.60534459803778    0.86121013032497   -1.18949645434552
O          -0.07333141605300    0.83984929240278    2.53979295226420
H          -0.79260317172426    1.09300050351512    1.93738026068597
H           0.03462852914238   -0.12258456570706    2.40487637505111
H           1.33146912196859    1.29370322483133    1.88891057231974
N           1.91689847281787   -0.17086271726231   -0.72101758835525
H           1.09442778468327   -0.83303921107099   -0.62718042810102
H           1.99804916011321    0.45377145062386    0.12959490708791
H           2.76836859355182   -0.70955972990486   -0.83858150547061
H           1.73060992955701    0.43196774465430   -1.56252676075402
