    26
        -50.46311101  Gyration_radius:  2.57052311164 Dipole_moment: 3.038
 S           1.71546482496652    1.27678688835311    0.76561296307444
O           1.55030057422878    0.65162963714311   -0.54443922643983
O           1.62067070530244    0.30751831410159    1.83392097596260
O           0.84513880016758    2.42257240691831    0.94965448695905
O           3.19863026006823    1.83559723940512    0.77096015989964
H           3.22344503827404    2.27504148438607    1.61398232386121
H          -0.66226048195682    2.03143987077238    0.64016466844969
O          -0.90923133084873   -2.57491426491797    1.19472035740673
H          -1.82755413934991   -2.79678469483963    1.03551890642274
O          -0.95848032508227   -1.22851323265108   -2.84019035127474
H          -1.90457107147888   -1.37904365048504   -2.84155817241439
O          -1.58537188424139    1.70909875085549    0.45606088327086
H          -2.16502700626557    2.43114211908234    0.70597726104584
O          -0.58903862816292    1.25176472061297   -2.08334023538527
H           0.30214692127344    1.18507730196095   -1.69561717057020
H          -0.83397572183718   -0.25009150175103   -2.69595981497730
H          -1.15922012048389    1.44012623122852   -1.31941086949941
O          -0.92798706077647   -0.23841150578181    2.32681581913698
H          -1.33143302355330    0.39501450461095    1.71026265763545
H          -0.91902562546712   -1.73523986791649    1.73914218820937
H           0.03085302341301   -0.03721777915910    2.30635752032240
N           0.66570541293672   -1.80978752575719   -0.80362866704464
H           1.42063681268651   -2.46220195123819   -0.98617844901817
H           1.07196660841282   -0.85118684338046   -0.60432432510918
H           0.04520784027379   -1.70846200859384   -1.64926402985260
H           0.08300964750742   -2.14095464295325    0.01476011992470
