    26
        -50.46060080  Gyration_radius:  2.48585084119 Dipole_moment: 6.140
 S           0.63894411615098    2.10066743154698   -0.12183279756061
O          -0.29794158930640    1.87939557995128   -1.21451918529602
O           1.89646133653397    1.39140289108465   -0.30405429123216
O           0.05957843456439    1.86397017866546    1.18431061291661
O           0.99074282858318    3.65087968199937   -0.18545397710601
H           1.51891520407415    3.78435128292667    0.59555593226824
H          -1.59016472314494    1.44821939321631    0.97031046445455
O          -0.26679525310932   -1.56618855764238    2.58011592571309
H           0.06574597234405   -2.32164181631819    3.06657662787992
O          -2.27106764718131    1.15384027967429    0.32474395974714
H          -1.86008501100851    1.47146598050645   -0.50287724909757
O           0.21991910651379   -1.94971685277570   -1.39064283096454
H           0.31568214586468   -2.68022299239240   -2.00276099311959
O           1.15682201526448    0.16476885701159   -2.54315670770341
H           1.85111326073169    0.45011979993898   -1.92560671498347
H           0.46301395990950    0.82799677135309   -2.35572036636452
H           0.56277740106087   -1.13762363532926   -1.87932441755499
O           1.65333089045821   -0.97817002893966    0.89097668112679
H           0.50959680943507   -1.19773239720405    2.08434596676108
H           1.33497839871828   -1.45067857243283    0.10962439169208
H           1.80071496869926   -0.05840731599025    0.59303575905424
N          -1.76531675656729   -1.39107432432730    0.39594242953012
H          -2.03204702890306   -0.33740014583578    0.34101813266601
H          -2.59220768075910   -1.97373601228754    0.32710545018702
H          -1.08474749438494   -1.61475932364736   -0.35850112810232
H          -1.27796367454523   -1.52972615273689    1.32078830509186
