    26
        -50.46305551  Gyration_radius:  2.55476005542 Dipole_moment: 5.323
 S          -0.05270137587709    0.81616869837658    0.83913174164816
O          -1.07236899099889   -0.09800471507786    0.33634187346301
O          -0.66936862035997    1.61263275493271    2.01885994830841
O           1.07927704004700    0.07396817077897    1.40272515727486
O           0.38088826465663    1.76133266847224   -0.17889370589647
O           1.45367948032204   -1.78186526050571   -2.19077360578093
H           1.32300354943749   -1.53156069284748   -3.10650870127570
O          -1.59937872580779    3.25705880966804   -1.10522893440822
H          -0.82077439524496    2.70605485821609   -0.87341869833150
H          -1.32485674064537    4.16731283015383   -0.98217506913173
O          -2.89881463948943    1.84595509266288    0.77191287083880
H          -2.65537409724946    2.46484211578088    0.05115348457891
H          -2.66426934768658    0.96757054409803    0.43705075607061
H          -1.59173345242254    1.82384521663168    1.69244032069144
O           2.47198279427433    0.36325601215253   -0.98846045139557
H           2.75034254313605    0.15758354314150   -0.09155007776442
H           1.87384084112124   -1.00012258685349   -1.75743616629380
H           1.72881795810165    0.98584783900004   -0.85622162946441
O          -0.62226419920501   -2.47252611415389   -0.68909922858877
H           0.15542837521172   -2.61905606648386    0.52501058126024
H          -0.97442000471571   -1.58632886732233   -0.44811321740732
H           0.08022350530972   -2.29609498393075   -1.35926740880612
N           0.77549377215765   -2.47690951190097    1.44183625880126
H           0.28600141455329   -2.79784458593649    2.27019471207328
H           0.91388436907208   -1.40202919180857    1.48863673242453
H           1.67346068236979   -2.94108654720280    1.35185245708411
