    26
        -50.45059475  Gyration_radius:  2.46309649794 Dipole_moment: 4.143
 S           1.95509298254244    0.00921703374829    0.42730722513956
O           2.08283565687347   -0.39131568634482   -1.05192500643664
O           3.21919065713605    0.26173456384907    1.00993806032860
O           0.98751255562115    1.08556435874471    0.52240609094523
O           1.32774300730323   -1.25271932340654    1.08158674449279
O          -1.88824128321424   -0.16988366926941   -1.22159776455874
H          -2.80177101126985   -0.13837663568071   -1.50688509391222
O           0.88809293259222    3.07635490371757   -1.26449489207425
H           0.89739760851426    2.51124606602222   -0.46854803170795
H           1.74363461914544    3.50649495821496   -1.30378460246024
O          -1.63825081526657    0.81192914686232    1.13109070848482
H          -1.85735781886902    0.25652507988549   -0.30268610727971
H          -1.60892260722036    0.05755913666222    1.76468745400271
H          -0.71254234610044    1.09382966564347    1.03575357153652
O           0.34762973484834    0.74845254946212   -2.45103524367294
H           1.37208194436411    0.08845714477608   -1.65100714872063
H          -0.52409178860614    0.49522369090436   -2.08525309890631
H           0.47509843220969    1.69286975094929   -2.21141833251661
O          -0.17524830698212   -2.17116047206377   -0.78648066169736
H           0.40312493475901   -2.15843179334837   -1.55424296031284
H           0.71216526229795   -1.65601615708269    0.39515679401961
H          -0.88927958796579   -1.51874552452752   -0.96306527672675
N          -1.19344714239990   -1.34899927253048    2.73295644651509
H          -0.20286440375258   -1.41986603838063    2.52247848503335
H          -1.62549836412293   -2.22413865101549    2.46433331961182
H          -1.29408482243646   -1.24580481579351    3.73472931087258
