    26
        -50.46861993  Gyration_radius:  2.45555859624 Dipole_moment: 5.503
 S           1.19687058739949   -0.24748678659600    1.80891697401420
O           1.45853598059317   -1.13817082396090    0.67994987932035
O           0.37516707875838   -0.81778479866910    2.83359610094882
O           0.72810713667050    1.05130443693874    1.32771368225033
O           2.61397439948658    0.03490227843449    2.47613580680514
H           2.53370120614456   -0.43830199437980    3.29776992649844
H           0.69809330336794    1.82136090834162   -0.08668618130053
O           0.64264598691052    2.20931513563853   -0.99554218935577
H           0.89664902994221    3.12907457572575   -0.91070581418323
O          -1.19781057883071   -1.16809372884965   -2.22553290747992
H          -1.27584573023644   -1.70005552815024   -1.39657139010807
O          -1.08420450131126   -2.07566811017083    0.25850111104611
H          -0.15436808462240   -1.97831617339422    0.51335615654509
O          -1.81404487572766    0.30134696876387    1.48910074128706
H          -1.95643427865723   -0.02410526759049    2.38135015830831
H          -0.89967325345766    0.64602936135914    1.49463430433164
H          -1.54755504819273   -1.35758062930380    0.72186655192874
O          -2.00152643348619    1.16512516665103   -1.20461377797194
H          -1.17770629860364    1.67357431490205   -1.19018464966706
H          -1.67676866243728   -0.33227222171441   -2.02114100324156
H          -2.18785206310426    0.93589659306835   -0.28437358231607
N           1.19407684067623   -0.33441430378943   -1.81432515704749
H           1.13230532730204    0.69404592923447   -1.77381201640790
H           1.38418924460399   -0.67781168528282   -0.83277386066148
H           0.19990015553538   -0.72898143642769   -2.09572313922591
H           1.91957353126782   -0.64293215082788   -2.45090571430733
