    26
        -50.44529036  Gyration_radius:  2.48673547268 Dipole_moment: 3.302
 S           1.51258970265928    1.63754928360211    0.53548964995785
O           1.33222045467393    2.23982886577697   -0.79729577056089
O           2.69066432696566    0.83386853287813    0.66023069981815
O           0.28272154110026    0.96620170436412    0.92610066766198
O           1.68187675951464    2.86580864911443    1.52936919712573
H           0.86822547811823    3.34974155946605    1.42209051219453
H          -0.02298519366744   -0.41327727271428    1.73574706126435
O          -0.28798383645836   -1.26490571267857    2.16012222772160
H          -0.61603200265855   -1.03423825222387    3.03031385269319
O          -0.05345386248146   -1.30659538825663   -1.81868143571704
H           0.31884078108388   -1.60184556202693   -2.65046051941579
O          -2.63327592363491    1.08452128128738   -0.21854766585808
H          -3.47030012026276    1.10376969021910   -0.68653359487721
O          -0.63805637147628    1.18759047398428   -1.79839690739543
H           0.22304239411086    1.69155394894728   -1.37251479752874
H          -0.38971670641393    0.19522140305769   -1.82711426048521
H          -1.40850470672089    1.25132340797727   -1.11617352963473
O          -2.09389495976930   -1.44764771915938    0.14376712622327
H          -2.47967999818070    0.13162391899252    0.04237704954768
H          -1.50517549128413   -1.59939128436024   -0.60799362688720
H          -1.51368158456893   -1.49688697289605    0.93034744961083
N           1.71408083496864   -1.71294340890653   -0.00454470344950
H           2.14943011816450   -0.81032357821060    0.20412368929708
H           1.21205882809904   -1.98983432086924    0.83306959491158
H           0.67408753389636   -1.47424600737028   -1.09109874180020
H           2.45290197404358   -2.38646723999782   -0.16379322449745
