    26
        -50.46788077  Gyration_radius:  2.39859625084 Dipole_moment: 5.648
 S           0.75318950635402    0.60688150266710    1.52471515149645
O           1.33188073203595    1.17648851157840    0.28499962804507
O           1.76625798246973    0.26991587032658    2.48796753665561
O          -0.08651154349613   -0.53522201809257    1.18023966713991
O          -0.17418781197984    1.70864416267761    2.12398099556762
H          -0.92700544421391    1.81461806250778    1.49432436002085
H           1.20090907609971   -2.52306837383277    1.77754864835398
O           2.06006454898167   -2.17741239536795    1.51818087097208
H           2.11191844488985   -1.30948887612389    1.98266487838875
O          -0.58968096286718   -0.84620630928031   -2.26482481462242
H          -0.70058941095909   -0.92811909175398   -3.21288731134106
O          -2.23978209580437    1.86389569965004    0.44483713430569
H          -3.00188070061463    2.17445593055740    0.93650413519141
O          -0.39917751337610    1.68355758438811   -1.64429098256850
H           0.30984228282590    1.62957773345037   -0.96611837162428
H          -0.55288132866157    0.13595309936958   -2.07280713121176
H          -1.17161692615297    1.99628059127264   -1.15631365020820
O          -2.38340329092934   -0.69288290349459   -0.04663120975425
H          -1.58665503714552   -0.77860148834094    0.52250337752294
H          -2.40502994525292    0.89600930728209    0.24592086858447
H          -2.05387802199193   -0.90568926944049   -0.92976986427555
N           1.76147850781530   -1.07727293516234   -0.87631391028240
H           0.86690423261022   -1.24415678176219   -1.38069965841503
H           2.56223572427490   -1.18271363151982   -1.49068688858396
H           1.69076268024628   -0.07983798233957   -0.48024982787871
H           1.85683631484401   -1.67560599920097   -0.00279362148817
