    26
        -50.45966311  Gyration_radius:  2.5938894369 Dipole_moment: 3.959
 S           1.26217264227297    1.15416448429536    1.72882549832110
O           1.36110761088441    1.64950113693635    0.37542746678116
O           1.54125322085754   -0.27996330672355    1.78506660404571
O           0.02685409583302    1.49893891353604    2.40660873529015
O           2.42048469651719    1.86282624689398    2.55748003581548
H           2.18214773754377    1.65333836443077    3.45519125899901
H          -1.25357902512116    0.89732282385170    1.65297735091306
O          -0.17224762800161   -3.25381525020011   -0.68144860186214
H          -0.35352198435970   -3.84563367749823   -1.41271513122827
O          -0.15635430707398    0.31473524646767   -2.30193949614880
H           0.17228192804239    0.68229873964830   -3.12293256948852
O          -2.04710927764952    0.61213437297578    1.13094335998942
H          -2.79129904653317    0.67072720007125    1.73210396058869
O          -0.92297894901523    2.26297930724127   -0.79238540379286
H          -1.54454657808801    1.84763154615163   -0.17359330320749
H          -0.06327274801582    2.25948419082857   -0.32086780546598
H          -0.48437149498613    1.10378644594155   -1.76700367639282
O          -1.94599042900344   -1.31414099679834   -0.84304180473897
H          -0.94080114855760   -2.62932559155170   -0.63575923061773
H          -2.02717240209691   -0.72557406417617   -0.07274210588085
H          -1.50923065838721   -0.78181896484820   -1.52206897649711
N           1.46172993809358   -1.13111656674441   -0.64986585263104
H           0.92272162888900   -0.45729991941470   -1.24142699880562
H           1.49731500212130   -0.77177829579222    0.36373592520335
H           0.95476963611944   -2.05128013524553   -0.65348440958026
H           2.40963752971391   -1.22812226027490   -0.99708482961917
