    26
        -50.45872242  Gyration_radius:  2.53318490781 Dipole_moment: 5.616
 S          -0.45548697161122   -1.93376247423531    0.18984623442662
O          -0.91887644714041   -1.39088367181514   -1.09090735617533
O           0.05199420612823   -0.88662979867607    1.04523479877439
O           0.42604477681060   -3.06763049958426    0.06360544402202
O          -1.79667817336790   -2.46918849534308    0.87177473775449
H          -1.48448985974783   -2.93311731898070    1.64237234299478
H           2.00581201497529   -2.49739475356171    0.10087330195723
O           2.88248658338649   -2.10233241380588   -0.09494968000914
H           3.37218299881311   -2.77673652975888   -0.57024168946627
O          -2.20797692471745    1.95177883978199    1.58605425570683
H          -2.43494170440799    2.85058406672864    1.82795286199546
O           0.96091387857026    2.04002350054039   -0.90500136424668
H           1.43972735584105    2.63042795636458   -1.48796209676384
O           0.37291172343008    1.62441426619303    1.85324492899598
H          -1.25382600571062    1.82382266999076    1.84967763738416
H           0.36234730510392    0.65592422206279    1.73739934274503
H           0.76315910893633    1.95195711037907    1.03141413604893
O           1.54536324955951   -0.36712205199458   -1.64121266459157
H           1.28331409115809    1.11434503772349   -1.12849255758654
H           2.16428757978874   -0.87315105882103   -1.07139752513625
H           0.69574195246349   -0.83158340060998   -1.56791183988652
N          -1.57412931178930    1.10836151382881   -0.85820423030531
H          -0.64736191971952    1.58553900763428   -0.95644279819718
H          -1.96882729514750    1.37081164952514    0.08257582772685
H          -2.20569609881568    1.36668107858261   -1.60900794719779
H          -1.37799612270324    0.05486155785321   -0.90029408093685
