    26
        -50.45872243  Gyration_radius:  2.5331785663 Dipole_moment: 5.617
 S          -0.43809702237846    1.29803072207196   -1.45119858076263
O          -0.73135322029262   -0.08524871509419   -1.15754173509895
O           0.58508421284564    1.82503631256458   -0.54277509046745
O          -1.60695491883627    2.13382229755282   -1.56882103067541
O           0.28526421910535    1.31809513288215   -2.87485936337844
H          -0.41383879705088    1.09754181208248   -3.48247582575675
H          -2.75071988563623    1.57507748400912   -0.47246915041956
O          -3.28503038434504    1.35746729054695    0.32131008430168
H          -3.82276867976029    2.13294758913866    0.49444501366172
O           0.27402072995858   -0.92130468493229    2.23169258992777
H           0.28305720468484   -0.98271816543363    3.18763341551500
O           2.16874122461262   -2.32806520999935   -1.03729022898915
H           2.64427937200074   -3.12501901709295   -0.79935630432090
O          -0.95122265542791    1.27543648967526    1.63910894470685
H          -1.86676265549227    1.19970196498043    1.29293715933018
H          -0.30012511653890   -0.12513774276444    2.01432805714180
H          -0.42853060012719    1.62549794910925    0.89936143204138
O          -0.26651422477185   -2.47626788833164   -0.09543332725163
H          -0.60563093129509   -1.69774982041192   -0.57545927265973
H           1.21306000472324   -2.49150285293501   -0.80018212091408
H          -0.20927852336976   -2.17615161784527    0.82198840706551
N           2.06887159885901   -0.08555846977886    0.39402719042918
H           1.49309705235927   -0.43365878542714    1.19620913638415
H           1.49444189126387    0.68747519560397   -0.07771987651648
H           2.95465819519238    0.29447310834838    0.71068157752916
H           2.21225189963159   -0.89222039861394   -0.26814111081151
