    26
        -50.46305553  Gyration_radius:  2.55470526689 Dipole_moment: 5.324
 S           1.14358838882975    0.06929129756517    0.24742939498745
O           2.63587037964339    0.42424043074721    0.01665032728309
O           0.41958906147322    0.36057453292757   -0.98512523636647
O           1.05477428579866   -1.33694887862694    0.61139189829367
O           0.68711607853316    0.93802415851618    1.33676618854897
O          -3.06567626147988   -0.46919423195414    0.68017104302860
H          -3.44423251663213   -1.30700723784891    0.40987760042554
O           2.03228846042630   -2.94860899464609   -1.24989744094936
H           1.58892051245660   -2.43749897679261   -0.53875522996955
H           2.69634765512787   -3.48563191774113   -0.81437948565289
O          -2.06704483792848    1.18954715910961   -1.13457882740230
H          -2.55086476883940    0.54747193470304   -0.56236974875032
H          -1.58528292378877    2.14950803622414   -0.16155215587080
H          -1.18404808797801    0.78333256298204   -1.28533005010772
O          -1.00261306489048   -1.07517134714412    2.24888748508587
H          -2.32945666313751   -0.69560676705331    1.29832669180474
H          -0.28124668938804   -1.36769239138627    1.65595946333564
H          -0.64095726393594   -0.28770663041748    2.66523599454060
O           2.56254621763039   -0.55931243069029   -2.35126675266492
H           1.65489445699955   -0.22093834477864   -2.33230775996187
H           2.81082533394892    0.07909670064740   -0.90643671113332
H           2.47939039283381   -1.51816770562228   -2.16263051436854
N          -1.04795662456129    2.70227308247339    0.64527071923390
H          -0.62017536163205    3.54979022127327    0.28820442621880
H          -0.27859903637610    2.00511784519670    0.95944803557718
H          -1.66799713309661    2.91121789238629    1.42101064482528
