    26
        -50.46709005  Gyration_radius:  2.46692242247 Dipole_moment: 4.123
 S           2.29536230348717   -0.57320578965461   -0.30115955596064
O           1.81180020788475    0.80308511069910   -0.49360956886603
O           3.67681162987869   -0.65815534863281    0.03965847687910
O           2.13850861937661   -1.27085385278761   -1.73683310401485
O           1.37360102841125   -1.29999899200022    0.56227168191412
H           0.15936229792573   -1.72789625612602   -0.41309972300809
H           3.02422700832487   -1.17767288481992   -2.06862090088668
O          -0.31622117627675   -0.54675149902037    2.52872274679439
H           0.36164999858100   -1.02793529434826    2.02106793438674
O          -0.59959967240956   -1.90570771537901   -1.02129673646725
H          -0.33245081008258   -2.65117313594183   -1.56043281617159
O          -1.99295088246266    1.75414691040202   -0.34034640260974
H          -2.55424114849370    2.39500550466054   -0.77681557181829
O          -0.37858573223161    0.61463990412313   -2.01326633623048
H          -1.42045539992354    1.34168097888582   -1.05739570810682
H           0.49735671442735    0.75642568876270   -1.60334168073907
H          -0.55776897147156   -0.33419855347636   -1.87380097200324
O          -2.36324537977745   -0.80531237585501    0.83815435930335
H          -2.44493507293159    0.08419513257225    0.46532531661343
H          -1.92430314340744   -1.33595563245879    0.15641819412320
H          -1.16916904943034   -0.76036459479710    2.07946081631610
N           0.14452530688302    1.69645647028696    1.32656198437527
H           0.88099835626078    1.39588437747882    0.62574386789549
H          -0.72382600609232    1.91281148848019    0.79754877510630
H          -0.04970295025988    0.82795666887573    1.95304893839696
H           0.46325190379559    2.49289371006017    1.86603600476624
