    26
        -50.45646141  Gyration_radius:  2.53581661728 Dipole_moment: 2.883
 S           0.81092142005470    1.69819569126303    0.95005451139363
O           0.52231770103071    1.46083024116895   -0.47016710599390
O           0.08721771348326    2.82877754044563    1.47457831858188
O           2.35615027877838    2.05530055822675    1.01348193924954
O           0.64936363752970    0.48579289675954    1.72572093802699
H           1.03930020945978   -0.91960858821216    1.09345334510749
H           2.39443275944533    2.94965910021278    0.68779864911799
O          -1.79650450157718    0.43676922009265   -0.54221110209089
H          -0.89519675721168    0.88216242286021   -0.66516952266531
O           1.21950697280634   -1.80324531764137    0.67824528096957
H           1.56360373570315   -2.36032038277578    1.37755116931099
O          -0.01203104815768   -1.84084876243623   -3.01669121455099
H           0.40263121544403   -2.54680470009080   -3.51307149679295
O           1.88863769573974   -0.51954947910758   -1.70371303290862
H           0.72201532601908   -1.28201897264611   -2.66142923467743
H           1.47495215935613    0.30067183714660   -1.37974212206977
H           1.92010581587262   -1.09863163831917   -0.92829056954565
O          -1.15823776237510   -1.98491154338582   -0.62956823034745
H          -0.86766404083462   -2.05017243070711   -1.57020053262165
H          -0.33098376720501   -2.02500262202023   -0.10820288814835
H          -1.60027215402894   -0.60340701694009   -0.57542342335282
N          -2.12509454792158    1.20308215246562    1.82815617598490
H          -2.05474627268029    0.71788452998193    0.48231086537638
H          -1.78517197645123    0.49420604600748    2.46649237915607
H          -1.42151497409701    1.95059633731205    1.81520124347962
H          -3.00373881818429    1.57059287031038    2.17083567998950
