    26
        -50.46305557  Gyration_radius:  2.55476053543 Dipole_moment: 5.325
 S          -0.43031622339522    0.61278543820827    0.90069390586223
O          -0.50856966755857    0.85416052860814   -0.53594291782387
O          -1.26121234494960    1.71234117290783    1.61266942842182
O          -1.06624088515409   -0.66135506280406    1.24976196385363
O           0.93856316222577    0.67940660137475    1.39014330392124
O           1.46607167705066   -2.46551338553788   -1.36110101450338
H           2.37194721928738   -2.32688889032272   -1.64130571504251
O           2.08244337677587    3.02702075811133    0.94545172105995
H           2.38662428394950    3.34041773808286    1.79886081247304
H           1.76722677775619    2.10891155374671    1.09122265635992
O          -0.48653333104398   -0.99738623725556   -2.39678062349540
H          -0.39562077365622   -0.17462113127033   -1.86549554840787
H           0.29642276514871   -1.54712700694451   -2.15459115047881
H          -1.51965541925164   -1.56331586037942   -1.55297150802212
O          -0.38333246021955    3.50106928945450   -0.00285227278117
H          -0.40537445420584    2.76720911723676   -0.63508483255606
H          -1.02159740876472    2.54128055182423    1.10551395555939
H           0.55555634485773    3.57002743326898    0.27208200561238
O           1.41740204922481   -1.91514721360985    1.24259836859893
H           1.43867722426037   -0.93994770071713    1.31945638232937
H           0.56867923746644   -2.14882357426583    1.62908028284104
H           1.46029454045593   -2.30547339205318   -0.38654235659564
N          -2.19173785267807   -1.87205221430723   -0.71718495477553
H          -1.77321713148798   -1.36277643483412    0.14419151522749
H          -2.16348365478578   -2.87674983894436   -0.57689782367413
H          -3.14301704128584   -1.55745223956225   -0.87497558397376
