    26
        -50.45646136  Gyration_radius:  2.53567732488 Dipole_moment: 2.888
 S           0.28021369264015   -0.57347680738911    2.00894976808500
O           0.80440999016686    0.23709545968740    3.07904795192204
O          -0.88283974342952    0.04413337163003    1.35888233362403
O          -0.26159296880695   -1.91765368273312    2.65599287973972
O           1.27326694316378   -0.97236432989104    1.03296430816762
H           0.81736858273451   -1.51736946735341   -0.38883955823796
H          -0.73938202047884   -1.62109847077491    3.42489472866663
O           0.53685875610444   -1.79496919853871   -1.29990024226481
H           1.16527253214251   -2.46168906349678   -1.57985662062136
O           0.04062411875310    1.92587241221098   -0.06795926892074
H          -0.46600337940715    1.25094235675269    0.49231774967394
O          -2.43304358899691    0.40412304582037   -2.53120394818076
H          -2.90111626939945   -0.02062929520883   -3.25047030129514
O           0.18600098937252    0.72429221642291   -2.26217698369669
H           0.13380390153234    1.48011795898495   -1.02416329072585
H           0.38810330200317   -0.19883591514266   -2.00760696830884
H          -0.76784268354780    0.71427690230877   -2.51415924658072
O          -2.12295056745577   -1.37645772385615   -0.57808735386274
H          -1.31365610193292   -1.78488857553680   -0.91828186709002
H          -1.83308066216932   -0.87353701184637    0.20419067511729
H          -2.46189614682620   -0.22640569512365   -1.77019553045613
N           2.19441070194540    1.73708726646254    1.21287259208176
H           1.80136870694278    1.29201322106695    2.05033036270299
H           1.02072688641072    1.93803273480703    0.41577539056383
H           2.74640359625304    2.54107706888714    1.48396604770641
H           2.79457142225802    1.05031122180377    0.77271638217260
