    26
        -50.45738818  Gyration_radius:  2.4383020323 Dipole_moment: 3.230
 S           0.64418887653786    1.93012222645037    0.84637287013269
O           1.10708559063501    1.61017109095356   -0.48788160170433
O           1.43632609969051    1.40421674422283    1.92072838711963
O          -0.77989126565326    1.57317340680127    1.00022583283684
O           0.69971245790473    3.51096059964532    0.97273595924140
H           0.92767079607113    3.62887334809688    1.88887820535623
H          -0.58237851289413    0.10190335492963    1.76680499088611
O          -0.50698383975437   -0.82573091692927    2.07538510534687
H          -0.29113687615859   -0.77140132755369    3.00737040821033
O           0.27604279717454   -1.99216436572109   -1.69052461809184
H           0.68072508253795   -2.72630963560868   -2.15245990547454
O          -2.19127098975638    0.64115940131797   -0.86151542440559
H          -1.70048091487402    1.12642757518053   -0.10165114596147
O          -0.28450609924934    0.55268283193439   -2.46164763788265
H           0.33278566372001    1.03917994847864   -1.86940054212149
H          -0.03525568789334   -0.39029160735277   -2.38079374804819
H          -1.47740662478492    0.64830926593568   -1.65611849081384
O          -1.89962914132646   -1.74141162809832   -0.08968593482102
H          -1.48589758339656   -1.60250695505474    0.78042575644513
H          -2.21583184446986   -0.35977200969785   -0.54903016423696
H          -1.17490062335609   -2.00235037873881   -0.69282621818346
N           1.79497664776461   -1.07218009887794    0.21143470244795
H           0.92908605686250   -1.69190563599627   -0.97082187286476
H           1.80711431439142   -0.07549123891857    0.00397449769219
H           1.24596844443963   -1.16598029083976    1.06226741608967
H           2.74388716583917   -1.34968368456359    0.42775318280120
