    26
        -50.45271670  Gyration_radius:  2.43426682678 Dipole_moment: 9.061
 S          -1.14930740355469    2.03044393504035   -0.03337518592524
O          -1.88119911618429    2.08096458235554   -1.26188015672815
O           0.25214313952123    2.43550038544309   -0.14020455311685
O          -1.24402351244531    0.72608165486179    0.62403636657291
O          -1.82289487189357    3.06712241805988    0.97091895641507
H          -1.32141714473086    2.97723038605980    1.77709824525585
H          -1.63513706790595   -0.11326159124494   -0.63208817964349
O           2.11084018718132   -1.04396837442504   -0.82280211100082
H           2.82385912894019   -1.31159310839761   -1.40357590509266
O          -1.72367271854508   -0.72193039583271   -1.41816111352811
H          -2.46638765326194   -0.36622215900065   -1.90961440280244
O           0.08660202827506   -1.20377976217171    2.48685933201591
H           0.77333099538638   -1.51996296433810    3.07758575513199
O           1.53574501490846    0.72702648200641    1.43094827026355
H           0.41822275688204   -0.33508763549741    2.13669506703445
H           1.99385618190886    0.20146171826324    0.76351221693069
H           1.06285365134699    1.41857528841010    0.92079921366395
O           0.65751952741370    0.67052331473811   -2.07345543475583
H           0.57296408877440    1.45158178276585   -1.48765204572673
H           1.59173593837189   -0.34068016050847   -1.32967381721642
H          -0.23755058171340    0.30206841305418   -2.13056261532441
N          -0.08660874453348   -2.25604088095309    0.08587248484312
H          -0.84065652181142   -1.82443215206252   -0.48207767139753
H          -0.15672839472577   -3.26762590800999    0.07606786343364
H           0.82898586719782   -1.91821257738775   -0.30644717842015
H          -0.14307477480282   -1.86578270123629    1.08117660911760
