    26
        -50.45653068  Gyration_radius:  2.55866362623 Dipole_moment: 6.241
 S           1.11316624516044    1.79642665957311    1.44670700410506
O           2.11519276333781    2.20898257097142    2.37726967036993
O           1.62914088230742    1.11869162893908    0.25748596825114
O           0.43484102361808    3.15855410454415    0.90219378536296
O           0.00313775010055    1.02911108693735    2.00673042689468
H          -0.79425008729508    1.17836470013270    0.63394169606026
H           1.07638576921040    3.80755823935447    1.17308452187759
O          -0.47725638854616   -1.61256882777866    2.07217054872333
H          -0.39151086516008   -0.67207803982663    2.31779635790580
O          -0.06620772939035   -1.99339976103947   -2.03593545724311
H           0.16124755890747   -2.49532161620694   -2.81913626967775
O          -1.30498976897753    1.30832821773466   -0.20262775580030
H          -1.49225849109448    2.24946083984412   -0.21290452010986
O          -0.26235222139790    0.56869055502432   -2.56777957483557
H          -0.11527121278019   -1.04066052827092   -2.31042834663128
H          -0.98531604053269    0.88788165040657   -3.11094705857029
H          -0.43517943742109    0.90496782866145   -1.66115420249249
O          -2.10302262039649   -1.38454288052047   -0.06736687145982
H          -2.02756821101863   -0.42206088923017   -0.14396468458324
H          -1.56306084363881   -1.75383145464286   -0.77715697334417
H          -1.24644604768951   -1.64716469607818    1.46219825339620
N           1.36631038350454   -1.46028239410475    0.24297425256008
H           0.93308748973814   -1.76786490408950   -0.64736958175907
H           1.51581180409320   -0.39926151002521    0.21037493398315
H           0.66670186256664   -1.63851438866895    1.04766011441907
H           2.24966645279687   -1.92946618164239    0.40618377259759
