    26
        -50.46365343  Gyration_radius:  2.41756200543 Dipole_moment: 9.113
 S           1.05143758795065    1.67206853529223    0.19240861005281
O          -0.30423974653482    1.46032265702631   -0.31347190453410
O           1.79037114955059    2.68935338494194   -0.47193961211196
O           1.77246325830793    0.36950916329636    0.22187031144320
O           0.87695950176319    2.05829478933181    1.70884093540702
H           0.30392285491718    1.36645595445942    2.08697365732304
H           2.21677865051050    0.42397308882003   -1.46310079274836
O          -0.79349441576771    0.10482254830229    2.68527546129289
H          -1.18982677106938    0.43461746809112    3.49311651581197
O           2.16961021925051    0.60057984273100   -2.41732044471417
H           2.24353368761155    1.55764934324830   -2.47598729250850
O          -1.33874917152957   -1.93865268525508   -0.97688019105147
H          -1.56762553198019   -2.68894896271895   -1.52614697865281
O          -0.45920928278811   -0.04068295176429   -2.47509193346741
H          -0.52537852978936    0.65519660926001   -1.78870165131230
H           0.48603427037817   -0.01039165392162   -2.71920403746238
H          -1.00277435613331   -1.22451429462128   -1.61103419330210
O          -2.38571912829854    0.17872667614680    0.64939297277909
H          -1.76706995743286    0.80544255382255    0.21603756267753
H          -2.34500001857239   -0.61732703723028    0.10230792304332
H          -1.50484302792226    0.15412551527594    1.97730816241029
N           0.44887602693347   -1.63899250156177    0.99273678104751
H           1.04745198839325   -2.43027813271828    1.20088449446074
H          -0.02454245140211   -1.28984177545103    1.83626044148074
H           1.05294615274737   -0.78217839187963    0.62878044372725
H          -0.25191295909513   -1.86932974292470    0.24668472890613
