    26
        -50.45653079  Gyration_radius:  2.55867425078 Dipole_moment: 6.237
 S          -1.65848094754504    0.07669530248329    1.95007928202478
O          -0.40445130618102    0.80927520745005    1.77557755111480
O          -2.64207456181768    0.75919282527290    2.72916020030075
O          -1.26854961579877   -1.24321338778409    2.79739106791450
O          -2.11281898250679   -0.43388367889248    0.65876416038990
H          -0.75728479914429   -1.26018253186733    0.50810433602834
H          -1.62277104534742   -1.02632846626034    3.65392464380542
O           0.06430461122158   -1.80551857789002    0.43611746056221
H          -0.03273682868314   -2.45907714969346    1.13203565882320
O          -1.86484673473481    0.54825833822757   -1.82884532123314
H          -2.21941120103177    0.14002905014476   -1.01656494818771
O           2.25471951825650    0.88568894464272   -1.50216418828884
H           3.08837067084385    1.30180647970848   -1.72331167981941
O           0.25244769264359   -1.06282193015930   -2.26946490629184
H           0.99402372348091   -0.44677830082620   -2.22157217845722
H           0.21573475632583   -1.50794369853409   -1.41014063054154
H          -1.24604289508374   -0.11851188305406   -2.19957892720203
O           2.48716832775940   -0.65350302341935    0.61014763046363
H           2.41705710724473    0.32949383068656   -0.69606356748519
H           1.54960629258834   -0.92998583647353    0.70756833692734
H           2.99789268421857   -1.46327392325276    0.55581050477904
N          -0.08724966760598    1.93975826653016   -0.53579889847269
H          -0.85756153854752    1.48055006092816   -1.13946263130548
H          -0.17979026684191    1.50786705098158    0.44097070140471
H           0.83780035300690    1.68747501422335   -0.93034683224812
H          -0.20505533671784    2.94493202682923   -0.48233680500073
