    26
        -50.45878689  Gyration_radius:  2.543878304 Dipole_moment: 6.037
 S          -0.97593218076826    1.71950053224462   -0.07167998038093
O          -0.79159430245036    0.60480007230783   -0.95869181005521
O          -0.03321620465923    1.64287507768922    1.06037200420912
O          -2.33146668173879    1.96591954760967    0.35904033823556
O          -0.53998384762683    3.02775110683654   -0.87511868846050
H          -1.09403708047219    3.69960686060244   -0.49039826788925
H          -3.16024577212880    0.49610806108571    0.41757457081333
O           0.72661645634884   -2.19852687843780    0.69095028813775
H           0.82703206501496   -2.98187253323997    1.23318144748632
O           2.72658469112816    0.00234741111683   -2.04077402830880
H           3.43884090430236   -0.51926343626880   -2.41298610134409
O          -3.51578318663348   -0.38116884098182    0.67391304170958
H          -4.23986379753817   -0.20398541190262    1.27779092049182
O           0.53503428540874   -1.42761359520628   -2.05431960408466
H           1.88752653379843   -0.51010753400707   -2.21015531845367
H           0.56003658936177   -1.94678022684289   -1.23889271150050
H          -0.08078647195302   -0.70088381758624   -1.84858358245094
O          -1.10638142680143   -0.74957747339830    1.80076767772193
H          -0.79815148818429    0.15995399248186    1.65655516995636
H          -1.99843398026059   -0.78905549037229    1.39380772661265
H          -0.06432218602456   -1.70541942842748    1.06564349245719
N           2.02893291785207    0.16300737221307    0.52166001996286
H           2.37390184575746    0.24404016387324   -0.47011422269136
H           2.76758498030861    0.36100315594987    1.18820686995263
H           1.20605312233018    0.83248476886565    0.68615317639739
H           1.65205422562978   -0.80514345619534    0.64609757146669
