    26
        -50.45454410  Gyration_radius:  2.42335781371 Dipole_moment: 8.704
 S          -0.12374225561400   -1.87193108632807   -1.46550657724497
O           0.78370910330719   -1.40905094967811   -0.37317301903626
O           0.61785343310557   -2.19007465022382   -2.64440648610324
O          -1.02085346429676   -0.59032564311426   -1.79708112643720
O          -1.06606397456330   -2.83146194910789   -0.95552507219256
H          -1.71029131581605   -1.77552017409804    0.07392626144549
H          -0.46052475029931    0.11746186874886   -2.13370915775516
O          -2.12415654220120   -1.12543267293090    0.69776987227077
H          -3.06838276335670   -1.20194095173818    0.55057178757580
O           0.93878658353029    1.23131164909015    2.13647865985518
H           1.23768143080956    1.50652553531491    3.00332151136462
O           0.07481669656265    1.93808420443899   -1.81551805371936
H          -0.34711005845632    2.59224288011755   -2.37308349545944
O           0.16316388179481   -1.22706264996467    2.19052391178246
H           0.64522327728046    0.26836852899842    2.23114511823715
H          -0.79847764906848   -1.24659006369286    2.07682368521822
H           0.48893667888262   -1.48871565697143    1.30256857323013
O          -1.26853294234085    1.48757198294802    0.37779882480880
H          -1.59935213138180    0.56667495745928    0.37501446947340
H          -0.61961167141164    1.53164247223114    1.09410632775510
H          -0.51728002757951    1.82388141530033   -1.01618033221629
N           1.99069548682340    0.80468295069949   -0.31246242503164
H           1.50828129878494    1.41568893933973   -0.99059800870087
H           1.76313813920376    1.11136657638519    0.65737568517014
H           1.52311165075491   -0.19814101380825   -0.41157011092511
H           2.98898187554684    0.76074352058581   -0.47861081336612
