    26
        -50.44985185  Gyration_radius:  2.67252726564 Dipole_moment: 3.401
 S          -0.49008285910966   -2.05308915331128    1.37119094341574
O          -1.08295910007560   -0.81412588141114    0.89308069519068
O           0.97354252603909   -1.95785716781907    1.38816080749278
O          -0.95290197366074   -3.24385548675609    0.70653454328517
O          -0.94294168320392   -2.17258745797632    2.88624702433877
H          -0.89201183281465   -3.10700168688523    3.06087534022786
H           0.03783534484014   -3.16787063733838   -0.68255576474000
O           1.74731841295238    0.25427503847397    0.53315816278183
H           1.57236612661847   -0.67474061518711    0.96221514942841
O           0.74662819182828   -2.90286410486645   -1.30317805030378
H           1.56158607184680   -3.01938264436592   -0.80817326115465
O          -0.77129907680186    3.36896880581979    0.15180459145780
H          -0.24113911584718    4.16622620263720    0.18334990532828
O           0.17186746574679   -0.32444116123038   -1.38470598605845
H           1.26000537620519    0.14877432741566   -0.36253660645515
H           0.42187966509850   -1.25230867475023   -1.60691374127858
H          -0.51661443848132   -0.43291056537311   -0.69503740151309
O          -0.01793218902543    1.44062152191992    1.78392886606465
H          -0.63215725068175    0.68916997566753    1.64087446133116
H           1.06916099021052    0.89049576440244    1.12497417305635
H          -0.36498543060053    2.19389712045629    1.23824456000101
N          -0.50181551830902    2.38041857781992   -2.33977438789366
H          -0.70406086669236    3.01498622937033   -0.77395605198936
H          -1.38562295954754    2.40525622642744   -2.83288227188790
H           0.20451997931948    2.76738867388178   -2.95332235397388
H          -0.27018586560672    1.40255679274915   -2.18160336591167
