    26
        -50.46770719  Gyration_radius:  2.51925667111 Dipole_moment: 3.822
 S          -0.16764276920595    0.11044729344261    2.17403694836907
O          -1.28426565856262   -0.23342145375094    1.30625861484766
O           0.51221148712547    1.31947861738651    1.74360937876400
O           0.73500890924022   -1.01047483364838    2.36262892265067
O          -0.78200455980828    0.44427252645259    3.59237714302334
H          -1.15044954923067   -0.39043992449043    3.86358188332425
H           1.44496428912135   -1.54779811725705    1.04716752190433
O           1.84726714299847   -1.80170580553350    0.17269581360936
H           2.48726811494240   -2.48945660444757    0.36208923737113
O          -0.14582023043107    1.53605722251355   -2.14650705204118
H          -0.54695217546969    0.71956588518110   -2.53133158104431
O          -1.26291246381551   -0.75507350890162   -2.86697069585104
H          -2.21301672147520   -0.72167103654264   -2.98629952021894
O          -1.58556885861743    2.08106563700972    0.03403730932564
H          -1.64314271355162    1.19654215103128    0.44578829885192
H          -1.00429677212779    2.57301063907498    0.62105665740570
H          -0.78454346849651    1.84342919440722   -1.46111529700367
O          -0.83894079185495   -2.07741021236023   -0.60401930527175
H          -1.11800160511140   -1.46834651235444    0.10493973278289
H          -1.11029076231338   -1.31624703580228   -2.06802470365420
H           0.11232563908720   -2.19676209903618   -0.47778665318028
N           1.72680706570614    0.83357271183549   -0.54485978298057
H           0.97263941973608    1.10910048309254   -1.30823752522125
H           2.59745831529592    1.32884470069462   -0.70433213023890
H           1.31585412881884    1.10076900305458    0.38940108249879
H           1.88604455794075   -0.18734894112024   -0.52018428796086
