    26
        -50.46770710  Gyration_radius:  2.51925878227 Dipole_moment: 3.818
 S           1.56647549186409    1.51106215263066   -0.17583203493062
O           0.19478538081463    1.73429844004070   -0.60794551637364
O           2.11572333409817    0.27440402580168   -0.70320061811488
O           1.70376586006758    1.62279200099405    1.26485097799062
O           2.43495064315295    2.67166180320973   -0.80762633599657
H           2.08731491953094    3.44915043817116   -0.38247875991002
H           0.87580676259334    0.56936937149751    2.11816511860322
O           0.33248293140143   -0.13767742163086    2.56074906981243
H           0.51627697334964   -0.06849731025341    3.49875271300388
O          -1.01372359976716   -2.06077458591191   -1.30797005814305
H          -1.85358546175643   -1.71427403212158   -0.92034633784106
O          -3.10044179569560   -0.85178268913014   -0.21258429163412
H          -3.67446850010344   -0.39583906853195   -0.82953471116576
O          -1.76421872729184    1.03030220460728    1.09939960369008
H          -1.22313394242434    0.61573907863234    1.78530709659965
H          -1.12863274623852    1.39213044467521    0.45399701923734
H          -2.66693967120422   -0.14568487440138    0.32594387822362
O           0.07438154663594   -0.00398643814517   -2.61559768958324
H           1.02094198293971   -0.17169887821142   -2.63465894310787
H          -0.71199156062507   -1.36789353216954   -1.94127161300793
H          -0.02527207389413    0.71064417222666   -1.95641964208441
N           0.85537387192917   -1.75175206709981    0.41712334364154
H           0.01197691438093   -1.95252129741431   -0.27286129699012
H           1.44337745130436   -1.00513019208721   -0.04106046690340
H           0.52537186311942   -1.36248400880441    1.31592442717594
H           1.40340215184212   -2.59155773648702    0.56917505776466
