    26
        -50.46770673  Gyration_radius:  2.51883568075 Dipole_moment: 3.808
 S           0.21520760530863    0.28542269751653    2.15308973286799
O          -0.89848968028552   -0.43683350132728    1.55619282069046
O           0.42622811648740    1.58208581740106    1.53396131712894
O           1.42014495143772   -0.52241520573258    2.19955226961526
O          -0.19146947535975    0.58516643631988    3.65147851096727
H          -0.26181869168694   -0.28603574641734    4.02821209304649
H           1.99904193745408   -0.97920273098888    0.79265656014998
O           2.28777817433087   -1.20306198513287   -0.13336324181506
H           3.12142067092188   -1.66820455584657   -0.04861483224322
O          -1.50681841276893   -1.36415031481288   -2.49884951874088
H          -2.43189477116866   -1.59909667654355   -2.41452632303740
O          -0.97640505191633    1.20573152443701   -2.13941445336380
H          -1.19133326851278    0.27540494867715   -2.39255983418482
O          -2.08076053693059    1.56309672899391    0.26411697875173
H          -1.53717015285563    1.39839441706234   -1.35157349495420
H          -1.80510330904724    0.74395805008776    0.72044907703735
H          -1.56564295874175    2.25225101103385    0.69332925731475
O          -0.30251578876137   -2.27734436219310   -0.31599437680735
H           0.64887124903813   -2.11920898310929   -0.38605297733053
H          -0.60759324794264   -1.69707355956177    0.40627435066405
H          -1.05156012390124   -1.77637417303121   -1.72474046957939
N           1.28307784117713    1.21087244683091   -0.93120377918216
H           0.35316809587153    1.18915457877944   -1.53321016118531
H           1.92826392609040    1.90592056451589   -1.29091079683557
H           0.99366894297522    1.45099525966490    0.05453260670554
H           1.73170393873461    0.28054732335151   -0.89283130570742
