    26
        -50.43911248  Gyration_radius:  2.55878982986 Dipole_moment: 1.180
 S           0.45685740634543    2.30634250209240   -0.23474829965075
O           1.66118689402437    2.74197221460269    0.38230124405270
O           0.53480683216688    1.56934061304092   -1.45281126338934
O          -0.41121818323525    3.60324177671523   -0.54612765749202
O          -0.41273138628392    1.57478413081320    0.78937614237563
H          -1.16982515175833    1.03466667097713    0.35618373642952
H          -0.13471913055392    4.27321902593378    0.07566750043721
O           0.58904965891846   -1.11443762433056    2.68102556319465
H           1.13928157715403   -1.77256288987232    3.10827887951397
O           0.38609756734188   -2.25239231203494   -1.10865936607014
H           0.42307753487956   -3.16876930078276   -1.38502608590903
O          -2.28434797157060    0.29166705134395   -0.33639645120602
H          -2.99496708821712    0.88365986462275   -0.58916460014077
O          -1.01649653073704   -0.40252960421027   -2.44390203306862
H          -0.49174869780983   -1.16125314636335   -2.10439259898259
H          -1.85603847120100   -0.03543062441334   -1.20392175348841
H          -0.40479782164046    0.34937354455761   -2.39730358130222
O          -1.23228896885034   -2.06057824292978    0.95730515845310
H          -0.65193116811735   -1.72974844747580    1.67848947228083
H          -1.80282174661355   -1.32071632891651    0.72233245065035
H          -0.20648115777433   -2.23102732012073   -0.30824661491659
N           2.07328923161283   -0.25655263148817    0.58404038286551
H           1.96115862446244    0.74541543869977    0.48984033939850
H           1.63721572189822   -0.69967002353359   -0.21853458462388
H           3.06487655780974   -0.45846917882048    0.53690911359351
H           1.14351585775553   -0.70954514809848    1.96748489699996
