    26
        -50.46225822  Gyration_radius:  2.49617292158 Dipole_moment: 6.719
 S           1.63379645794047    1.19503401628101    0.07893126188489
O           1.29241143230080   -0.19951795309334   -0.13377065380692
O           1.47304002735829    1.60192515842661    1.46906811440346
O           0.92695092878290    2.08688809271771   -0.82149829044520
O           3.17199615783942    1.31924950241254   -0.25423597503184
H           3.35494329573500    2.22857707590692   -0.04246335368208
H          -0.65487201554305    2.16232149073428   -0.59274401829142
O          -0.34458313757045   -1.60886848436466    1.57349906530983
H           0.46838932634650   -1.33906579160342    1.11712501477981
O          -1.62480556454299    2.10814244425466   -0.38135318169322
H          -2.00261945403546    2.94830308958029   -0.64525828206923
O           1.23399628938328   -2.64599579082148   -1.50028375254764
H           1.44650862849917   -1.85228266461319   -0.98826214653127
O          -0.94668268252617   -0.30990382031601   -1.73230793895350
H          -0.09481534742488   -0.20403081814774   -1.27670839334780
H           1.05706910766530   -2.33894000335988   -2.39220061093069
H          -1.45800445371495    0.47467614130106   -1.50739267696905
O          -1.37113664932683   -2.72387709250970   -0.55591968848210
H          -0.85324975881985   -2.11373576966540    0.87817931578304
H          -1.46501217700440   -1.90149787329628   -1.07378467872068
H          -0.52057370205658   -3.08606691573277   -0.85745750916375
N          -0.97627208960724    0.85173621276418    1.94480469999164
H          -1.48407731622312    1.27223844613617    1.14641043217504
H           0.01885104994907    1.21947950639691    1.89469586504540
H          -1.41423540250161    1.08540632423309    2.82927354059394
H          -0.86701294089735   -0.23019452364014    1.82365384072758
