    26
        -50.43911260  Gyration_radius:  2.55791648218 Dipole_moment: 1.181
 S           1.75044830820540    1.41474730691729   -0.71243801307168
O           2.93244370172350    1.34653435350430    0.07441448511420
O           1.46114696354020    0.34815818567665   -1.61341248395264
O           1.84313792194607    2.73731495989591   -1.59265150585294
O           0.54814023780062    1.70934931800710    0.18635851297517
H          -0.34902759710165    1.53607055012376   -0.28003878285013
H           2.41845111387936    3.33817800025668   -1.12368321457255
O          -0.37298166199129   -0.12495840500168    2.93520255057394
H          -0.35289611356063   -0.74892462126214    3.66238095203191
O          -0.95203960965441   -2.33447079064764   -0.30132249236379
H          -1.44773606247792   -3.15406290948515   -0.29577086953526
O          -1.63444931941300    1.29898314245600   -1.03198945876488
H          -1.83162312867448    2.02601572159327   -1.62519763733999
O          -0.88458662691813   -0.70677191735707   -2.42696715611735
H          -0.93841414328038   -1.42783004408638   -1.76104131083047
H          -1.42571261496749    0.49140595774837   -1.62124464255984
H           0.04907238711836   -0.44242308509201   -2.41598632891594
O          -2.27673431719225   -0.53981602429862    1.09465635266454
H          -1.46912276802094   -1.69736701254885    0.26344696266612
H          -1.66426484818122   -0.31898970982493    1.83119600926048
H          -2.27886392554975    0.23149083512219    0.51745539370997
N           1.47077311933714   -1.06753522587521    1.18868821386383
H           0.91253544698545   -1.47996958851033    0.44779070278808
H           1.98270259610045   -0.28563883954054    0.79885175376598
H           0.36103971708424   -0.38644491036231    2.32433222568365
H           2.14856120326741   -1.76304523740766    1.47696979163208
