    26
        -50.46166206  Gyration_radius:  2.50971432443 Dipole_moment: 6.126
 S           1.90046066997204    1.05343962181738    0.53868707072383
O           1.32054197547773    1.19202852034442   -0.79384409479477
O           1.60136713425288   -0.23595729591030    1.12406147631116
O           1.55967305731650    2.18236363597330    1.38073066605491
O           3.47309263454722    1.09379674666433    0.34659580147346
H           3.63040048056659    2.00206348437262    0.10904386145096
H          -0.03183924765173    2.25344486214233    1.05018800691534
O          -1.01218108202311    2.19611050205960    0.95290203720788
H          -1.35195890213459    3.00499849185414    1.34068024815380
O          -0.13739353331524   -1.71288520451007   -2.93967976275097
H          -0.53069858638959   -2.52892663476626   -3.25141285316334
O          -1.86434686181513   -1.46779877222808    0.57945679561295
H          -2.75350760038200   -1.69650516112223    0.85139208403926
O          -0.72081631431553   -0.09316048748153    2.43411857755719
H           0.21277584663406   -0.20704177228032    2.16791449798141
H          -0.95983551836700    0.78849365886031    2.09541286493350
H          -1.43639640982337   -1.01847396257678    1.37243164504752
O           0.70202093095099   -2.21313783201654   -0.47196465223939
H           0.35666422604064   -1.94464700494247   -2.11517680760490
H           1.18817804137519   -1.54134617934502    0.04316763106108
H          -0.15356155855968   -2.28616634086100   -0.03030694194636
N          -1.02537491723298    0.24454050976300   -1.36302509988352
H          -1.64781263714573    1.00961785601582   -1.59735279292751
H          -0.07480956314475    0.64936647550144   -1.07668226434852
H          -1.41210026158655   -0.32818022492646   -0.58086860787927
H          -0.83254200325241   -0.39603751239353   -2.16646938698154
