    26
        -50.44722215  Gyration_radius:  2.48009290704 Dipole_moment: 5.453
 S           0.43637857039502    1.11230050025352    1.61797920203751
O           1.10968159206371    0.95091096718933    0.34136421132795
O          -0.82156648270762    1.95239622401955    1.40564834186514
O          -0.10218494643261   -0.28973433622486    2.03848138218980
O           1.23345959802187    1.61827862456334    2.67192375615322
O          -1.25212108646186   -0.59217602761254   -1.89330645517559
H          -1.42348813546414   -0.79279002286695   -2.81399369969796
O           1.10216671163748    2.87516752755188   -1.52225463911643
H           1.30629007514897    2.15907944128564   -0.89102481921666
H           1.43719193449061    3.68449602041326   -1.13346266296209
O          -1.38856417434148    2.00877778403542   -1.03989609742678
H          -0.57881386688696    2.43591767843146   -1.39320984970095
H          -1.38631104582503    1.09802113448113   -1.39336241824046
H          -1.11097732871554    1.96800968617951    0.40625640445802
O           1.14485017799596   -1.25128731425147   -1.21444803023207
H           1.17689534184310   -1.94592685476906   -0.52293753440533
H          -0.30310164015673   -0.87305402554690   -1.70640994355708
H           1.32940096503161   -0.42478290698565   -0.73455992326247
O          -2.11775064923925   -1.01815720410248    0.60044439591375
H          -1.92582870315416   -0.85436238321908   -0.34569929867363
H          -2.24759908391444   -1.96367617795386    0.69603697959026
H          -0.90853592579588   -0.51397338390825    1.49003187535185
N           1.27376375240129   -2.78182882509227    1.06709417748471
H           2.26473337339116   -2.87532007534987    1.25439515914532
H           0.82946001186393   -3.64690320990483    1.34918284501091
H           0.92257094481203   -2.03938283062197    1.66572662114019
