    26
        -50.44722215  Gyration_radius:  2.48008988925 Dipole_moment: 5.453
 S          -1.81660451764495   -0.45445594731513    0.73374081694298
O          -3.15636006213332   -0.90844942888559    0.70059199887007
O          -1.50436869631519    0.29479553155747    2.02772163914444
O          -0.87680413834164   -1.69861024859612    0.77166404669734
O          -1.40199976038619    0.36551034589562   -0.39093484901277
O           2.10960556023262    1.02515516747311    0.04084452398951
H           2.83333243668861    1.57346658773335   -0.26382692776670
O          -1.56582444542561    3.03872631175082   -0.33682060190694
H          -2.46697043501727    3.28983935633495   -0.12873628999164
H          -1.58511594632933    2.08571140345455   -0.54729919506723
O           0.11823240739816    2.15082501061154    1.55066255627927
H          -0.41158167303280    2.68263478332630    0.91862852157420
H          -0.80395148013571    1.04949962468732    1.87722805240692
H           0.87117212396288    1.79805231788970    1.03778667415480
O           0.78476041509618    0.02967928858909   -1.93259568215510
H           1.64188747631921    0.67822970003080   -0.78094501183372
H           0.81690988209732   -0.94981114870948   -1.96878289799191
H          -0.09134765308626    0.22840165048002   -1.55788619067781
O           1.50096291485575   -1.08509723922039    1.56593440998080
H           0.01838648539467   -1.42780078395958    1.12742188566393
H           2.10532269283465   -1.79016616153823    1.32574355506810
H           1.80799280017905   -0.28006533435323    1.10056595027818
N           0.40834130855534   -2.68939548153607   -1.76098451445449
H          -0.17671332450625   -2.62384174056292   -0.93253023719232
H           1.03950293031823   -3.47138790062544   -1.63648943747449
H          -0.19876728157890   -2.91144564451023   -2.54070281552068
