    26
        -50.44722213  Gyration_radius:  2.48008449505 Dipole_moment: 5.452
 S           0.77575724619502    1.35223759638273    1.27088443333078
O           1.78537737468830    2.01234375972363    2.01052158313574
O           0.39322404435295    0.04070259269099    2.02326479397953
O          -0.52036969398529    2.15977262373649    1.23588976560081
O           1.13096558083437    0.98241867766801   -0.08784944364412
O          -1.64817817619450   -0.87499084278064   -1.42164181641499
H          -2.02739424896459   -1.21849194821149   -2.23123950575279
O           0.62542732295003    2.58424019949032   -2.17463683629898
H           1.01971364419731    3.44196607570029   -2.00947215081866
H           0.99418809550563    1.97614165177862   -1.50594115149291
O           0.85944137011120   -1.44030379184098   -1.24035016255516
H           1.07466431369113   -2.01577737383975   -0.47598885100951
H          -0.67410351565496   -1.13114732970075   -1.42541431635515
H           1.12865957072277   -0.54956755841658   -0.95477423961298
O          -1.65333771395255    1.83007102306369   -0.98065283847848
H          -1.03918237635636    2.01825889331799    0.34507232490180
H          -0.96332821026056    2.18735089273985   -1.58000639393461
H          -1.70880040501249    0.87454876427833   -1.17642293787920
O          -1.88421345000200   -0.88867882393907    1.24181049933594
H          -1.92730923121593   -0.87993621805865    0.26357588141022
H          -1.96024927374506   -1.80548153895662    1.51327106817753
H          -0.51345056290410   -0.26049778417535    1.72578028800979
N           1.57071175164935   -2.58767716257466    1.15591419526509
H           1.23137839810088   -3.39224695150666    1.66862512087226
H           1.35030279506536   -1.75575774756835    1.69652203515092
H           2.58010536018466   -2.65949767900381    1.11325864508084
