    26
        -50.44722213  Gyration_radius:  2.48008952886 Dipole_moment: 5.452
 S           1.92441709699245   -0.19168375932427    0.55217322896019
O           1.16085741895511   -1.54035831319044    0.72728878148504
O           3.03112919889964   -0.18805848843212    1.43384361426787
O           2.36538951939873   -0.19405040957784   -0.91029664229051
O           0.96142682002580    0.87790423927570    0.74659116896727
O          -1.74975317908677    0.26518379310259   -1.53984480720237
H          -2.52435530187302    0.66173978293919   -1.93979689689372
O           1.11993417613360    3.19299209726912   -0.59174484154208
H           1.02434308781138    2.47181168590763    0.05916034045379
H           1.98816252783148    3.57350626801739   -0.45094084287758
O          -1.71115975680009    0.63462604577051    1.01017226249229
H          -1.75479528543046   -0.19884669627407    1.52510806219421
H          -0.77301528884407    0.89157178850280    1.04642166719111
H          -1.80408137070420    0.45355377020897   -0.55190210154916
O           0.73923621902549    1.14393099511310   -2.27802723024055
H           1.69379300843064    0.31985104543065   -1.51665268732737
H          -0.17048226763810    0.84910712596981   -2.07826397273867
H           0.83726818604119    2.02146193646051   -1.84989223329054
O          -0.40178214200177   -2.02802739085447   -1.26805256620539
H           0.60331272860526   -1.71417105914792   -0.08522822264099
H          -1.03727385834686   -2.70003612490137   -1.01380111033776
H          -0.91524295552227   -1.22439730993077   -1.49046884316701
N          -1.29377175399076   -1.66425667494095    2.46113186681137
H          -0.35193979086264   -1.79884835319486    2.10369361835552
H          -1.75261104500730   -2.56672297866749    2.47981489325069
H          -1.20900597204663   -1.34778301553414    3.41951351387697
