    26
        -50.44722210  Gyration_radius:  2.48007790974 Dipole_moment: 5.452
 S           1.66989127326967    0.76745514448222    0.81693703680191
O           1.54355704443152   -0.75324794976921    1.13962334765361
O           2.34580293907569    0.80851935950857   -0.55226958583075
O           0.32284457276868    1.29455508207579    0.68741863966464
O           2.47076692094471    1.37021452824406    1.81565708709218
O          -1.35430779207509   -0.72984772380493   -1.77086047442562
H          -2.12919574024420   -0.77564465647027   -2.33184324076449
O          -0.27256649922264    3.26731747847904   -1.02410572588123
H          -0.17354521160054    2.65701512270410   -0.26868220236859
H           0.30081782506320    4.01459192161954   -0.84737247789511
O          -1.97875750772185   -0.11002051942549    0.65119724796272
H          -1.75923444753928   -0.81049358329373    1.30149981448342
H          -1.26994602641516    0.54852520503624    0.75774826498388
H          -1.67675204437578   -0.48157756629767   -0.84952330279181
O           0.60466605280004    1.10129273794856   -2.33777501727964
H           1.65152408487725    0.89074517530132   -1.32299644343024
H          -0.10900382098746    0.44776334158345   -2.20360646052197
H           0.22934403014209    1.96755918100427   -2.06999689099708
O           0.76806914008516   -2.11176040953305   -0.91321470407878
H           0.01285581206317   -1.66008926620618   -1.34283114677139
H           1.28644860175854   -1.24867375983245    0.30913118737825
H           0.44840131438539   -2.96807231501205   -0.62230331665657
N          -0.90524554719012   -1.79378234235162    2.54241773628137
H          -1.15419449219663   -1.37188664459246    3.42890974682312
H           0.05251340290355   -1.52223636993201    2.33774183802136
H          -0.92475388499897   -2.79822117146743    2.66909902254698
