    26
        -50.44722215  Gyration_radius:  2.48008701935 Dipole_moment: 5.453
 S          -1.02906705122329    1.58242720058989   -0.69439421138240
O          -1.54577088255428    2.89968724901956   -0.69396259268807
O          -1.14978156276436    0.92715501916666   -2.06891666932343
O           0.34017872928928    1.44338060882740   -0.23072741313129
O          -1.92382840612390    0.70315139953579    0.23236610207683
O           1.06824723500597   -2.08085872756379   -0.17830448364979
H           1.77902252342974   -2.71942407882648   -0.11278084223501
O           2.42328742146600    1.50466479502117   -1.91372483348191
H           2.38533891308012    2.31460291628121   -2.42458538566383
H           1.78276720722364    1.60667784916993   -1.18415993941924
O          -1.59223771769969   -1.81650186485317   -0.21761695975587
H          -1.80041133352417   -0.26117453023700   -0.00451641347315
H          -0.63601171290063   -2.01945717771896   -0.27536496319982
H          -1.93632313947772   -2.31715840914180    0.52465097645849
O           0.82332300760997   -0.57682048124495   -2.45643026457094
H           0.94002246367165   -1.16258769066886   -1.68332881703240
H          -0.36773810741878    0.26524940759834   -2.25086237493095
H           1.55086065293842    0.07992667974470   -2.40796846737754
O           1.26000789324760   -0.26596291426764    1.64104012428348
H           1.08543934143683    0.47889684433471    1.03923938004929
H           0.50275735050580   -0.25739046859432    2.26412645158694
H           1.21296127163403   -1.40835417645863    0.55739211913427
N          -1.06219158548412    0.13820293875722    3.05826135700696
H          -1.57194294201842    0.49015219372783    2.25252295204159
H          -0.86042623064756    0.93076854764539    3.65572713715521
H          -1.67848331870397   -0.47925313984610    3.57231804152332
