    26
        -50.45271275  Gyration_radius:  2.56217373408 Dipole_moment: 2.802
 S          -1.48961426057948   -0.22862602871330   -0.42944874098004
O          -0.54062521637665   -1.22767404108126    0.29135049649906
O          -2.22399713461342   -0.92619579972247   -1.43622119188673
O          -2.42651254157312    0.25204551362162    0.64975630987721
O          -0.67305956717355    0.86901164724535   -0.91458727643951
O           2.05359681329330   -1.55803267760554   -2.43048611356704
H           2.19592179013658   -1.09352925441316   -3.25687225424931
O          -0.44849680730496    3.21229238421479    0.33326718213129
H          -1.10588505492673    3.82667954719531    0.00277261166778
H          -0.49623469480350    2.42171202240704   -0.24118000277024
O          -0.44154608548912   -2.52652646684111   -2.59554498861223
H          -0.61685887114484   -3.36827338129748   -2.17071617932415
H          -1.14044409224929   -1.91949240917008   -2.28012408576208
H           1.16563349601674   -1.97249622563329   -2.50468894238888
O          -1.13154899393263    1.54780864128918    2.29847536052079
H          -0.30809847367970    1.01143742549773    2.50126558998770
H          -0.83523760594043    2.30391530212739    1.74298329212953
H          -1.89183918910484    0.81215606591789    1.41919239237883
O           1.70097209451889   -0.13302339823056   -0.23507655257373
H           0.40446179685799   -0.89104484103648    0.16413494381273
H           2.00346879877417   -0.67499080694335   -1.00471353684451
H           1.15596792610584    0.57410677507831   -0.61558326041979
N           1.05936590650339    0.09045077684684    2.67229123610134
H           1.60418473301288    0.15431942753118    1.81811910085748
H           0.76223797616302   -0.87252464187687    2.77005309204960
H           1.66418721746060    0.31649444365600    3.45158148763679
