    26
        -50.46797324  Gyration_radius:  2.47269663481 Dipole_moment: 6.431
 S          -0.74113245048167    0.69566538166356    0.50048312688055
O          -1.03196183533515   -0.64512003282255    0.97261306273284
O          -1.18145639096206    0.88417874669937   -0.88824127597831
O          -1.53384056304421    1.71196889980144    1.34952959209196
O           0.68237091019468    1.01723932286285    0.60594351720793
O           2.24618119216003   -0.42448400998957   -0.96211732441749
H           1.46204570605787    0.11105443092178   -2.06403631202481
H           1.88632722311646    0.16007262938192   -0.25967794716577
O          -1.49594133356458   -1.32105286021431   -2.36513145275195
H          -1.54777958284433   -0.55378281707835   -1.75651349116675
H          -2.32919452214500   -1.78607781690932   -2.27758339457784
O           1.33895583728936    0.92937505558404    3.17059721373404
H           1.18512455192081    0.93989569234885    2.20158746457303
H           1.71051289516933    1.78459738764216    3.39255539702093
O           0.42178767186628   -2.27075934960000   -0.57663612838348
H          -0.06647494024240   -1.80940197695614    0.13294966255976
H          -0.17211137237461   -2.22279997338123   -1.34145748304486
H           1.77725636219617   -1.28317201048727   -0.80138537796366
O          -1.25356449293144    0.31497891081341    3.46954809590472
H          -0.30202985148790    0.48397180328637    3.63296178029121
H          -1.52911324645125    1.29605496721267    2.26427161340960
H          -1.27471285421452   -0.44020766422795    2.86206917672880
N           0.65076422791415    0.52352893951281   -2.70792622801752
H          -0.07205767428349    0.86012189741267   -2.00349536152001
H           0.20609032967979   -0.22801591659062   -3.23533824539207
H           0.96395422278806    1.27217037311045   -3.31556966073164
