    26
        -50.45271057  Gyration_radius:  2.56469255416 Dipole_moment: 2.759
 S           1.47688220247982    0.10797902878126    0.51058430412471
O           0.64224982414748   -1.18665188548409    0.29970837993103
O           2.19727121163118    0.00451188704959    1.73940756413948
O           2.44063500460516    0.13309690861838   -0.64887977768229
O           0.56030263933838    1.23057917025671    0.42948550168745
O          -2.09771566766219   -0.47890778773670    2.81504417406983
H          -2.35498608008830    0.28900687883520    3.32796213487947
O           0.24499035986596    2.73405295437607   -1.74706254602612
H           0.83787080010808    3.48667420681712   -1.71710883581645
H           0.31464791187193    2.29319985786848   -0.87639130712946
O          -1.69611173498505   -0.17354893928064    0.22252746620159
H          -1.22410862957141    0.67374641621022    0.25516476095880
H          -0.32949392910917   -0.91304123022679    0.24043031329983
H          -2.00902835076110   -0.33636046547237    1.14622015049363
O           1.15946115834074    0.43352030596653   -2.73308522693246
H           1.91545898696870    0.24012561901535   -1.59938473245022
H           0.39039233891132   -0.20938438431628   -2.68958612495787
H           0.77710069218427    1.32790838538382   -2.58499224991391
O           0.45056597740366   -0.94976979503819    3.50494510673726
H           0.72580918503770   -1.86400034308062    3.59571253614013
H           1.12494673504741   -0.52449527173668    2.93828958779289
H          -1.18412750182578   -0.69964883537794    3.10183311134322
N          -0.89191099476532   -1.23263443238890   -2.45081407617589
H          -0.51665038971016   -2.09831074447007   -2.08341300698196
H          -1.45934039977215   -1.45084661833398   -3.25987435104479
H          -1.49511134983680   -0.83680088598869   -1.73672286661633
