    26
        -50.45059462  Gyration_radius:  2.46314731879 Dipole_moment: 4.140
 S           1.47772735437564    1.21725093536147    0.58192561790291
O           1.92737427858330    1.05411955131054   -0.87962468435778
O           0.04454549044273    1.44009251121425    0.59189661414302
O           1.74448805504368   -0.18660888488931    1.19199615001398
O           2.25750719758690    2.18151417551323    1.26257259235404
O          -1.27227605266247   -1.26485395129227   -1.36726268343835
H          -1.97976463775672   -1.80213488150495   -1.72463832413857
O          -1.16876159462792    3.00293663800026   -1.21136310882304
H          -0.85818403634062    2.53440919894034   -0.41322540595577
H          -0.77540596794822    3.87648912079576   -1.18529009528005
O          -1.85370196589832   -0.45146675263643    0.99105820261931
H          -1.39745898909499   -1.04666208152245    1.63056514727732
H          -1.30943025771407    0.35395008482020    0.96789603985688
H          -1.57793302780270   -0.95602848422226   -0.45161115875252
O          -0.04035243079416    0.90921527104631   -2.42067729206133
H          -0.57924666876860    0.14810491458137   -2.12386030548861
H          -0.55310921574007    1.71171659966644   -2.17850637122634
H           1.11499590943968    1.00580032283515   -1.53675440263696
O           1.28579832213028   -1.75972870620666   -0.78451907278101
H           1.56858093088775   -0.85556214050507    0.46100115131630
H           0.33382215812578   -1.69482976625864   -1.02157752637982
H           1.77543855813025   -1.35106305807109   -1.50380396626106
N          -0.25382499392779   -1.91948875339173    2.63986268170566
H           0.57130248939202   -1.34306597069826    2.50770401846862
H          -0.01927572529897   -2.85945716660949    2.34642023637110
H          -0.46285515976336   -1.94464870627712    3.62981596555505
