    26
        -50.45271267  Gyration_radius:  2.56247739041 Dipole_moment: 2.805
 S           1.47607190738328    0.45164339488812    0.27295812976569
O           0.62221830189552    1.05924013310054   -0.73126243180327
O           1.54026986456242    1.32172310593105    1.50274201823963
O           0.77370542353038   -0.85099418392575    0.75052702191481
O           2.79675564946432    0.13476926488334   -0.16855358658773
O           0.08419662280956   -2.36363847093624   -2.63839333194580
H           0.17023038665748   -2.03266713846109   -3.53390494599992
O          -1.04081640009319    3.08142675840338   -0.23725468701645
H          -0.43142584573280    2.38355547695313   -0.55166342573768
H          -0.60182415798134    3.91762284521603   -0.40113304756901
O          -0.75605949918179    1.93750005238880    2.15234411125249
H          -1.29917797564547    1.09441816631105    2.11849165108856
H           0.54142226879169    1.60034419132205    1.84397715106807
H          -1.02942157548706    2.47027386898598    1.37166296555638
O           2.52895162200696   -2.11516250562061   -1.56484655783382
H           2.80151070897152   -2.78149345461082   -0.93136111209151
H           0.98830978918480   -2.33763042548859   -2.25431465636238
H           2.70582577055536   -1.25394481047491   -1.13653663077512
O          -1.19753288848320   -0.88301273526744   -0.86620421309124
H          -0.87459347627039   -1.51940474087833   -1.55043461345324
H          -0.05265372376402   -0.97432677244619    0.18080361603647
H          -0.86074513680655   -0.01527425871201   -1.14088962637239
N          -2.11348205461056   -0.33582943327747    1.92208601898891
H          -1.54999565018461   -1.06321994655652    2.34460663384373
H          -2.17771418831811   -0.53998021823519    0.92976559513448
H          -3.04402572321597   -0.38593816350578    2.31678794348988
