    26
        -50.45271280  Gyration_radius:  2.56214340658 Dipole_moment: 2.804
 S          -1.17237361732809    0.86568256605136    0.57606156604019
O          -1.07946243452196    0.19582599358311   -0.82430444715338
O          -2.13411251919571   -0.00104379046042    1.34902704490264
O           0.15018248023258    0.80709142169067    1.17123490222641
O          -1.71144520511173    2.18002139058320    0.42978704136554
O           1.91353409949579    2.09184005670954   -2.12490003606841
H           2.53027512135483    2.69960250173116   -1.71357374956536
O           0.88730911077737   -1.01544367594909    2.96940885692561
H           0.72835269376074   -0.68765121216049    3.85603617899691
H           0.71775551455934   -0.26603612836629    2.36366185752469
O          -1.10802412326420   -2.21795646290014    1.67612786939879
H          -0.33634613130412   -1.98007543913167    2.23821624378077
H          -1.73210234765258   -1.00490190821286    1.49739450600429
H          -0.73140661085640   -2.49312825321700    0.78769876588133
O          -0.50650541315547    3.17555661961353   -1.72438815398961
H           1.02817312297878    2.51004631162849   -2.04146897449118
H          -1.16703175581215    3.04187955273349   -2.40675534165085
H          -0.93736214384162    2.91999800859239   -0.88444084085877
O           1.43481276403598   -0.21362443671402   -0.92882622007465
H          -0.10749312121105   -0.03220601761616   -0.98557230137702
H           1.73247625965633    0.55657691453438   -1.47264467812854
H           1.42657103618243    0.10527873538894   -0.01227254406197
N          -0.05841905478931   -2.78895998498834   -0.69798467098355
H           0.25513279825574   -3.73499136913779   -0.87378624121151
H           0.73026760761031   -2.16334939243795   -0.82867292466347
H          -0.75275812088018   -2.55003200158321   -1.39506372875167
