    26
        -50.45271272  Gyration_radius:  2.56229969883 Dipole_moment: 2.801
 S          -0.18781498370396   -0.02135541922120    1.55535326079687
O           0.40176804519287   -0.63698423736056    2.70116313391403
O           0.92203048944104    0.69833659263901    0.73764472426270
O          -0.86877487215245   -0.93047420910191    0.65172726057239
O          -1.11864448643186    1.08338781426274    1.98750519485771
O           2.52258477021139   -2.35916103213417   -0.79400108275183
H           2.27629514516810   -3.28541389259934   -0.81099743564602
O          -3.19673538996890   -0.38235823841670   -0.52276078942200
H          -2.37621156775651   -0.71827335840954   -0.10906470020146
H          -3.92183876413623   -0.70132009363083    0.01697351561406
O           2.66147004507081   -1.72183835998663    1.80705758672236
H           2.64004229765997   -2.12973847624469    0.15429432599109
H           3.31651528315558   -1.07176323183966    2.06775796486348
H           1.81864368340303   -1.42256710858212    2.20270992766047
O           0.70585723826970   -0.56420526104585   -1.46679929151488
H           0.93141957721224    0.28641490248675   -0.18588001854156
H           1.43906779222010   -1.22240314119032   -1.38472010625179
H          -0.06184908557069   -0.97867548221174   -1.04171341076663
O          -2.19575194205993    2.03415498433742   -0.01500041934396
H          -2.71254562766940    1.25785709982296   -0.32861074534802
H          -1.60174037833193    1.55367668459749    1.12896396394568
H          -1.46849186493772    2.17641940152960   -0.69156568530254
N          -0.20486768871765    2.26402164772802   -1.76073805776588
H           0.58243573098066    2.66116910552548   -1.26320662575742
H          -0.35742107646713    2.80899318598637   -2.59974290905515
H           0.05455763997250    1.32210012309338   -2.03634958151276
