    26
        -50.46224014  Gyration_radius:  2.5486113364 Dipole_moment: 4.821
 S           0.12210229976940   -0.29453191295720   -1.15022111271656
O           1.09325769650905   -1.07314677541118   -2.08177237147851
O          -0.91305291540987   -1.28498773464387   -0.80564577096640
O           0.86391046407618    0.09708823551829    0.04315361817375
O          -0.41182322226251    0.84612264883895   -1.86540442991200
O          -1.75648544534517    0.88471877945746    2.64349423608879
H          -1.75503593963658    1.81122944702245    2.88783303920423
O           1.59587538237410    2.41521659756018   -1.17987850084568
H           1.72161947403029    1.88358378046414   -0.38338073870986
H           0.73827797467345    2.09150238502658   -1.51944523523606
O           0.48353726746862   -0.54030566365062    2.54927068314424
H          -0.12374046415224   -1.74455692309136    2.02991821257259
H           0.79880792083205   -0.21411268085008    1.67409250230206
H          -0.29756172281691    0.02732712401655    2.74976927651384
O          -2.38640774478137    0.77453264306364    0.03758506565230
H          -1.96996674530220    1.37452965161722   -0.59201731413189
H          -2.08555402607866   -0.09696019775162   -0.26975935362716
H          -2.04661850267752    0.85163668546309    1.70374482157284
O           2.68957416761870    0.78899571860500   -2.95077379103459
H           2.35484101220856    1.07983504392941   -3.80190927414178
H           2.45179326830954    1.50221821042587   -2.30512500458662
H           1.76632786021642   -0.42421755962355   -2.42752440911958
N          -0.62095181733459   -2.53933288902708    1.42113302253369
H          -0.73591640537005   -2.07734288126431    0.44886284557609
H          -1.53422835653541   -2.76999454714344    1.79934903459067
H          -0.04258147038867   -3.36904716560622    1.34465094858106
