    26
        -50.46224023  Gyration_radius:  2.54857567912 Dipole_moment: 4.826
 S          -0.26112101965598    1.10605315103413   -0.36523380198234
O          -0.00654562019901    1.93005133789549    0.79824246511322
O           0.71061694562395    0.02700036110842   -0.50370559471611
O          -1.63148171920901    0.56526187995447   -0.38995248049348
O          -0.18064272584007    1.98754383733856   -1.64333780952263
O          -0.35386569545233   -2.61217712063725    1.97638451043648
H           0.29120418882012   -2.72817076694302    2.67539435172387
O           2.60688759685106    1.59312252419160    0.66151936603703
H           2.46079706975381    0.74363612359815    0.22580431969111
H           1.71155563169047    1.82884692420725    0.97507790892844
O          -1.25451967294572   -0.09213109945303    2.16890500771787
H          -0.63883679961930    0.63801520254746    2.30177958961297
H          -1.64588759967279    0.11586725175962    1.30392768639806
H          -0.72115387917870   -1.70664107363019    2.09289435815525
O           0.35461280575255   -2.56086245640512   -0.58330423984965
H          -0.95835913311658   -2.24870048888623   -1.09914189964315
H           0.68176122510311   -1.63106168851623   -0.60071962760380
H           0.17716217632289   -2.73508107404969    0.37102854535952
O           2.10359715731462    3.20372041946220   -1.37083528289327
H           0.69600355926716    2.46178022122761   -1.62883785931003
H           1.92568936276437    4.06004362017788   -0.97582602077019
H           2.48583091392674    2.64334669206240   -0.64839601207332
N          -1.93349420820413   -1.78567439027885   -1.39025890903524
H          -2.70939636932223   -2.24999137011649   -0.92904221793319
H          -2.06153519460002   -1.78380020984745   -2.39643565126061
H          -1.84887899616125   -0.76999781781584   -1.02593068209902
