    26
        -50.46224027  Gyration_radius:  2.54851064776 Dipole_moment: 4.824
 S           0.02217627112435   -0.14213684959042   -1.18500228817860
O          -1.16101726751502   -0.92854776597305   -1.46627020262713
O           0.44176186875121    0.62701666737330   -2.46923812800155
O          -0.20211492794360    0.83876845138142   -0.12888904443149
O           1.19564578794895   -0.97470061391421   -0.86749325387761
O          -0.04972581597242   -1.11195186533721    3.10028781775450
H          -0.89418590290250   -1.12519341263992    3.55290073662279
O          -2.80637612712512    1.05133767112111   -0.88668946173068
H          -2.13715656828054    1.41358325855540   -0.29174995130327
H          -2.44964478774737    0.16530314775600   -1.09455804442680
O           1.00184244528640    1.14352294971238    2.17058690992952
H           0.60229927987705    0.39290925449329    2.67005776730056
H           2.13877006738314    0.52685212419594    1.52615651197312
H           0.45642907747518    1.20430239200077    1.35163008482825
O          -0.41263318507130   -2.35809557396060    0.75183750097552
H           0.32344133868846   -2.07254336237883    0.18512545032657
H          -0.17839465804519   -1.62291186965614    2.26916257741395
H          -1.18454164554258   -2.16077659581521    0.20865679047143
O          -1.76559048731620    1.79719367117168   -3.19679410811773
H          -2.18367887896665    1.23723889999562   -3.85459323143375
H          -2.28343359762483    1.67104496003086   -2.36129095248466
H          -0.35283509349211    1.13660274550769   -2.78942703898565
N           2.84548830207636   -0.03932884837555    0.87068565291658
H           2.20652527719559   -0.42852290601342    0.08834167709334
H           3.27393351578687   -0.80858535792821    1.37569589124498
H           3.55301571194225    0.56761880828487    0.47087033677347
