    26
        -50.46224018  Gyration_radius:  2.54841184852 Dipole_moment: 4.829
 S          -0.95046352475046    0.49657176313397    0.52430503450128
O          -1.03975456626359   -0.82427706703779    1.17107334895627
O          -1.29189664184477    1.49811546390341    1.66332819524382
O           0.41891062887238    0.75726785661917    0.09456325971519
O          -1.90529351052192    0.65701480537177   -0.55279700847871
O           1.51095201989398   -2.35573668794342   -1.73723415907841
H           1.66773643125858   -2.19048377103020   -2.66794502092196
O          -0.50103566471172    2.55760403764597   -1.72685385613138
H          -1.16616330413529    1.86387244229605   -1.54826144193745
H           0.30128575034849    2.18526977141819   -1.33879619393251
O          -1.08714855080576   -1.85546514564138   -1.29024304289885
H          -1.16772196727333   -1.71912044349131   -0.33140010227982
H          -1.50238799275184   -1.06324818466732   -1.65052756625391
H           0.54540297067031   -2.22757334299518   -1.59687261110244
O           2.52548885135027   -0.78805651848387    0.15211588381880
H           2.31660760504526   -1.38356098194081   -0.60572205588294
H           1.86395062847474   -0.06113880531378    0.07518328763528
H           1.87228052324001   -1.44453331988281    1.26094979591846
O          -1.48065728335135    3.76862091141201    0.40649946875542
H          -2.40941127521662    3.91152505322887    0.21125332389903
H          -1.34385308958563    2.40812539674852    1.25969812540994
H          -1.05921433463954    3.50089252219279   -0.44953879412619
N           1.16032662885340   -1.85184420023341    2.02076132780393
H           0.21115503494753   -1.41703897641917    1.73496922452656
H           1.40719109088931   -1.55922997360703    2.96002254110630
H           1.10371355199196   -2.86357262534093    1.96146904573333
