    26
        -50.46224017  Gyration_radius:  2.54855456893 Dipole_moment: 4.823
 S           0.31527662834201    0.40673683892539    1.07660185499665
O           1.67271583230075    0.22677254249919    0.53245746910315
O          -0.62624447049548   -0.46676775739948    0.38495696232188
O           0.43056120913550   -0.08482783546381    2.54702817654024
O          -0.11087427680146    1.79092619642688    1.06926155690717
O           0.04930966291694    0.03922110170330   -3.29380456595159
H          -0.69246042724260    0.44544786737399   -3.74420021707135
O          -2.67409889421290    1.16658672227079    1.12245043252390
H          -2.46541958283270    0.33017590714750    0.68687681774910
H          -1.83617221840048    1.66365602211854    1.04278505314967
O          -1.86726433266005    0.58311866790250    3.56903316228411
H          -2.35488998607023    0.77347217961092    2.72761070924497
H          -0.43768070538309    0.10508228561889    2.99846495577052
H          -1.75164507437475    1.42998172895179    4.00549992404544
O          -0.26768512809190   -2.03999009402224   -1.67109075460129
H           1.10837426543356   -2.10423517520913   -1.23473702741675
H          -0.58703955625509   -1.53499849649220   -0.88702476403395
H          -0.23545546507833   -1.36812840220291   -2.39228794950173
O           0.91327151059107    1.81280132154950   -1.47527355969264
H           1.43177774370046    1.30007360549443   -0.83284470592357
H           0.39554752981872    0.71910177665351   -2.67222748038693
H           0.28558516805356    2.28100673801544   -0.91256919408588
N           2.11666299772364   -1.94050606830498   -0.78050225308887
H           2.81423009254063   -1.76300266685996   -1.49620738414854
H           2.39343464808067   -2.71960291416739   -0.19296296562116
H           1.98018282928141   -1.05210209210463   -0.17729425312724
