    26
        -50.45269172  Gyration_radius:  2.57768722822 Dipole_moment: 4.547
 S           0.47540935228077    0.71906680145806   -0.40935688263072
O          -0.84489457083644    1.43896634647966   -0.67756965466045
O           0.01467364433408   -0.62103388736441    0.18448903276864
O           1.16356451880844    0.48046469156738   -1.64542168502968
O           1.22563172070404    1.44506457502654    0.58521504913587
O           1.96846758360194   -1.91182350185355   -2.53901304833221
H           1.71994436785154   -0.98378484129696   -2.35996757628325
H           1.34136160253831   -2.24249292198570   -3.18374314361249
O          -1.92220433743010   -0.10964550338952    2.17831073679668
H          -2.67846539754754   -0.11073419896013    1.54983301992602
H          -1.20985241709598   -0.55614503896360    1.70294365452731
O           3.45041129721292   -0.00187062113212    0.22993129731269
H           2.76324644255663    0.63791206645328    0.49016119857263
H           3.67698730315324    0.21114642941180   -0.67872400872514
O           1.93819425714398   -2.16338794723767    0.10767459627599
H           0.82424826337942   -1.34964310262204    0.19216465691167
H           2.01049379836859   -2.33183366903364   -0.85941109739996
H           2.65618114618595   -1.51183212020022    0.30219832668230
O          -1.12977905396938    2.31055200813079    1.62965384115653
H          -1.48443258640839    1.46676910238374    2.03555521297624
H          -0.17424072055237    2.30704238598852    1.77944413022595
H          -1.06839818313044    1.89800200681526    0.24678890748943
N          -3.58566542207360    0.16752023006524    0.02821726660023
H          -4.27999914214235    0.89855715401809    0.11900294074982
H          -4.01481250962793   -0.61236384490222   -0.45345808244632
H          -2.83607096735333    0.52552741112054   -0.55491870898876
