    26
        -50.46224022  Gyration_radius:  2.54855929303 Dipole_moment: 4.824
 S          -0.83136160261213   -0.53863531069201   -0.66561666490051
O          -2.15875776909998   -0.21157184461600   -1.40594269723389
O          -0.08950442602785   -1.52037288386675   -1.42947376360538
O          -0.09260155615261    0.70813633600356   -0.49940558249214
O          -1.26980874289235   -1.05070530851122    0.64459302040632
O           2.41957732147089    0.03070837379051    2.23541961057141
H           3.32120211698746    0.06499512145507    1.91291178070642
O           1.11549191209964    0.30631985039295   -2.90387689651640
H           1.01911051614708    0.93509755720530   -2.17700261811650
H           0.87245997502355   -0.54273435104252   -2.48489600047011
O           1.21256364720121   -1.98530018888947    0.93986537440031
H           2.00419823155429   -0.74771201245943    1.79958934019198
H           0.25869994172442   -1.81994358454154    1.02526698622283
H           1.32317005639530   -2.09001204503652   -0.01229900585725
O          -1.36129311880343    0.33841597322423   -3.82095056747835
H          -1.92787601279656    0.04845818693972   -2.34015131354152
H          -0.39284075360393    0.44195194587849   -3.63799904471800
H          -1.44838179946123   -0.46333100468013   -4.34119840562832
O           0.66132573632511    1.94226718385962    1.67737203863818
H          -0.47039822212319    1.29397869981164    2.29901576217636
H           1.41524791731119    1.36541856632220    1.94452982726940
H           0.44412551620963    1.64508767842654    0.76282171582664
N          -1.32415493896527    0.63290142554632    2.58901697740533
H          -2.19412469697272    1.15063333718975    2.65134578513632
H          -1.12997727336930    0.14785003006922    3.45926626976290
H          -1.37609197554262   -0.08190172177285    1.77779805181054
