    26
        -50.45652774  Gyration_radius:  2.46351924719 Dipole_moment: 4.622
 S           1.01947974602802    0.88819479367210    1.29771790662705
O           1.46902988411578    1.05641693609448   -0.07668595880758
O           0.15426850090754    2.08048745741946    1.68703283672170
O           0.05205874925617   -0.31638193509911    1.33688387251644
O           2.04695001343883    0.68651646596179    2.25707515153082
O           1.46400056181540   -2.74605362291647   -1.01379997873664
H           1.44464367470830   -3.58131435015272   -0.54434546863183
O          -0.15131861067578    1.19239710223690   -2.10023052095041
H           0.54624779080483    1.20330144534960   -1.40109604080637
H           0.24417467997251    1.56478234656030   -2.88963339228718
O          -1.67935383464195    2.18990208591722   -0.02458011687459
H          -1.28290926701149    1.95302293091091   -0.88000223648743
H          -2.25076493245448    1.41583428229022    0.23789666749484
H          -0.61174080955655    2.20199393217954    0.99075920526142
O          -0.68875839990641   -1.21562048085967   -0.91150479132835
H           0.05776062924991   -1.84597531841679   -1.06336573719244
H          -0.26518129512313   -0.65563988770460    0.41737399132074
H          -0.56815340495059   -0.48358581070760   -1.54045902408000
O           3.06416662044052   -1.06555620069964    0.35470724082911
H           2.74473892298021   -0.24099635495084   -0.04025561130796
H           3.04357490363228   -0.88620433934666    1.30152250521294
H           2.12433816436399   -2.18681548546266   -0.54976295151884
N          -2.93699789026296   -0.05091716289880    0.70709273039659
H          -2.49094771208276   -0.26177276844435    1.59173639129610
H          -2.61236406661708   -0.73948902068635    0.03706822370843
H          -3.93694261843702   -0.15652705026144    0.81885509607906
