    26
        -50.45059458  Gyration_radius:  2.46315379228 Dipole_moment: 4.139
 S           1.13846057267046    1.63975851282702    0.13791655615683
O           1.10163140007946    1.55995098512429   -1.39739187955797
O           1.76530309645648    2.82717485346852    0.58318611652334
O          -0.20420117938767    1.40761024888735    0.63510562796321
O           2.00996343371930    0.41596100141682    0.53413522043816
O          -1.20291162845799   -1.65588594892745   -0.94819962951154
H          -1.78832166224058   -2.40114964803809   -1.08535790614680
O          -2.36643814800253    2.43630750014668   -0.56205511589026
H          -1.67976314292804    2.12278774836783    0.05695859299450
H          -2.27472074213586    3.38901939371944   -0.61147339824351
O          -1.18331044260489   -0.95981871723962    1.51680817064510
H          -0.95267703341067   -0.02719129944044    1.36687749975212
H          -1.26454673329912   -1.41682868684393    0.03479295580844
H          -0.38074836242646   -1.35553446123428    1.92996691229786
O           1.42362783057356   -1.30717728171901   -1.27658668698307
H           1.49469277610377   -0.79889199484494   -2.08943716725521
H           1.81425014755118   -0.30602770344657   -0.13907769838849
H           0.47599668994245   -1.55116851096567   -1.18104198392289
O          -1.12226748280421    0.74427593477852   -2.20780648261752
H           0.17299834944241    1.23319034101137   -1.75089378406939
H          -1.27042862795104   -0.13252515772693   -1.79906078897055
H          -1.74453652998392    1.35817703118792   -1.75893417348579
N           1.24303516280769   -1.78540347071516    2.44655671098354
H           1.75773438742407   -0.98790259045203    2.08647223266345
H           1.64239163871783   -2.61823203116077    2.03234805345530
H           1.39478625014715   -1.83047606818455    3.44619204536268
