    26
        -50.45652773  Gyration_radius:  2.46344034355 Dipole_moment: 4.627
 S          -1.28196280716541   -1.25739935604681    0.53649091305758
O           0.25837751544958   -1.18766148444232    0.64218584216497
O          -1.53776144044216   -2.07650898504599   -0.72258043086808
O          -1.79292614989571   -1.92986913429855    1.67813192098132
O          -1.77788501302873    0.09587528145991    0.33152025787240
O           0.94315898512083    1.90046397377457    2.49145137510097
H           1.58663229204519    1.65085097072442    3.15631784455650
O          -0.86439739373015    1.68501954291524   -1.50668015154185
H          -1.31655171732359    1.14798427358247   -0.81180097072296
H          -1.44447672024267    2.42112534890788   -1.70654845091755
O          -1.30794557409923    0.49344116685530    2.94959533910041
H          -1.70754007651775    0.61187791480789    2.07543272922744
H          -1.37800519428443   -0.45537605007358    3.10414433418599
H           0.10698933265214    1.44782071351997    2.73646455650997
O           1.31085733724615    1.03058346841182    0.02259028001909
H           0.67783282157170   -0.28984303616665    0.36028342646787
H           0.66600225840211    1.47644964118021   -0.55313623563018
H           1.25006852230791    1.46704219044326    0.90771791929397
O          -0.44107034632869   -0.81823781534122   -2.59791608829070
H          -1.13338062036955   -1.58684869335336   -1.54919317411591
H          -0.58175297046574    0.12788278897852   -2.42427046300935
H           0.52562583444559   -0.98965878364457   -2.42228698624348
N           2.08418295162315   -1.21316087601461   -1.82030276481071
H           2.85154321241427   -1.48091818926853   -2.42281212308731
H           1.97498391521001   -1.92200188503227   -1.10504411965263
H           2.32940101544414   -0.34893297682646   -1.34975475966144
