    26
        -50.45300974  Gyration_radius:  2.43481611404 Dipole_moment: 5.196
 S           1.89166573806135    0.42340677565928    0.79390410621952
O           3.02024348373088    0.68542843890944    1.60507382349686
O           1.47739352183175    1.50594460639656   -0.08607093818932
O           2.13394628522122   -0.82119423656648   -0.07512950923846
O           0.67712206910765    0.05180031397937    1.67457508716113
O          -1.12973835026915   -0.30114396199940   -2.00847572419660
H          -1.72012634301208   -0.15099482204781   -2.74767582074405
O          -0.58646751498630    3.18302563048804    0.20345621003315
H           0.25182358200963    2.72267089922320    0.00343272813136
H          -0.39174180101157    3.80311987271768    0.90760057815651
O          -1.48301129662294    0.68758658931495    0.50003601594380
H          -1.36456436206400    1.65894911430121    0.41942179829784
H          -1.44039361676564    0.34586578238819   -0.41572316002665
H          -0.19916212809170    0.29411757619891    1.19992477260586
O           1.31389967684404    0.49518901213740   -2.51901597244136
H           1.93364778561898   -0.23658117812572   -2.45852994319988
H          -0.23533160077043    0.03593399962492   -2.28705779751554
H           1.44110900114541    1.00843098231211   -1.69344870741430
O           0.06413539776949   -2.18978084222067   -0.41665422695795
H           1.28357350260915   -1.41180387038748   -0.19770354277422
H          -0.46315906609701   -2.21832065180960    0.42926174089133
H          -0.47293735205792   -1.68931776160087   -1.05302756889173
N          -1.38284514788678   -2.05241780674976    1.82783095905463
H          -0.69529722247538   -1.75589912685460    2.50995776071286
H          -1.92534097964562   -2.80917958056484    2.22357150339801
H          -1.99844324219516   -1.26483576472698    1.66046581748990
