    26
        -50.45652771  Gyration_radius:  2.46335609429 Dipole_moment: 4.627
 S           1.67039037775141    0.28785603547357    0.79996432917884
O           1.68345375702147    0.15711663736752   -0.64984634578876
O           2.72254141144348   -0.37710793842924    1.48374546679494
O           1.64904904970747    1.76689379555837    1.16529476772851
O           0.31697852570952   -0.25368538391140    1.31347439324388
O          -0.42192253865982   -3.14032604802813   -0.81700813684978
H          -0.68503721803021   -3.83268175381666   -0.20889407448988
O          -0.22438382656673    1.03150114648859   -2.17757279483393
H           0.57555817487386    0.70891969493088   -1.69634643356127
H           0.02674549040107    1.12489622307724   -3.09761664558202
O          -1.43106012792918   -0.72413479418648   -0.45706712245803
H          -1.16521285904830   -1.65175703812598   -0.67323662773221
H          -0.39626230732274   -0.41405381790060    0.58745368336580
H          -1.18402641278225   -0.17772158675300   -1.22290286026638
O          -0.34850979336013    2.73664293908590   -0.00599363966392
H          -1.10165407367518    2.37082111434839    0.53606161216788
H           0.85610367118053    2.23782837034700    0.67944447579709
H          -0.40664320681934    2.30206078392037   -0.87362309146223
O           2.12340680240610   -2.46556243708157   -0.24932395413868
H           0.53279357796701   -2.98040278735042   -0.65252311744469
H           2.12688543802993   -1.60717622485029   -0.69770716261346
H           2.49164759867720   -2.26869295188013    0.61941892259946
N          -2.21212934217438    1.47611006633985    1.43424299377495
H          -2.48412334371264    0.69605284944205    0.84605613491612
H          -3.04836082934065    1.89900463028724    1.81560145159855
H          -1.66622799577808    1.09759847566251    2.19890376574336
