    26
        -50.45652765  Gyration_radius:  2.46333029676 Dipole_moment: 4.623
 S           0.43905804300807    1.81830509641504    0.11477707048128
O           1.51503347519631    2.73088395972665   -0.04672584273746
O           0.41191108693964    1.09873611700301    1.38001207890359
O          -0.89490517613018    2.52762521527344   -0.08232161889688
O           0.49032450295877    0.77465671199329   -1.02400684135083
O           2.65395515977819   -1.90043174728079    0.23371951105196
H           3.25780263664660   -2.08455720001600   -0.48732524008203
O          -1.26511481661430   -0.81458410034488    1.89582184728206
H          -0.61934178867387   -0.07071280035896    1.82310392953510
H          -1.35588782764736   -1.00992132737484    2.82956940060396
O          -2.65494255368001    0.74550557650208    0.08741328479441
H          -1.67510370304097    1.84270472764542    0.01125981167843
H          -2.53978857448024    0.26134845502248   -0.77692309237295
H          -2.36704319103954    0.12841894337204    0.78127044492916
O           0.08815443300313   -1.63027994579835   -0.34086229162853
H           0.29687031526828   -0.19639994275859   -0.73931523710559
H           1.01957838246795   -1.86782747054659   -0.10910911965232
H          -0.40533850439700   -1.58740985898055    0.49617012846207
O           3.03689958133076    0.65392265360091    0.99932924295660
H           2.19945822723715    0.76840180087270    1.47205074958853
H           2.87863382991919   -1.00033334297594    0.55534619288453
H           3.08354508669348    1.43009441846230    0.42974172657326
N          -2.03092395712753   -0.53892350099476   -2.17044310494175
H          -1.47566076979316   -1.32647860905689   -1.85441585009105
H          -1.39681615032736    0.11450143271886   -2.61423431540913
H          -2.69035772751777   -0.86724524213870   -2.86390285547526
