    26
        -50.45652779  Gyration_radius:  2.46354504301 Dipole_moment: 4.627
 S           0.35492989630428   -0.21534254511241    1.82784285879466
O           0.78569781897911   -1.16877652282572    2.78813978096551
O           1.41305119413793    0.41651052132474    1.05311202571520
O          -0.61332825609229   -0.90188380558835    0.83798877123557
O          -0.48784454481284    0.86610102287537    2.49252260224606
O           1.53439942233413   -2.26041467289596   -1.80183244122573
H           1.22523452243438   -3.15826195486822   -1.93099923663539
O           0.96017650165994    2.00916132491377   -0.94630059298209
H           1.71154875617209    2.55291686418896   -1.18729738531770
H           1.24249874652138    1.46109233748713   -0.17465694375596
O          -1.27817188341538    2.36103460760501    0.63660324470745
H          -0.54596652937397    2.43588453862833    0.00156033520427
H          -1.96827030356699    1.79238489287872    0.19491594851673
H          -0.82065462545809    1.54384338341882    1.77407940890688
O          -0.27497420458347   -0.34332874124231   -1.60860101696901
H           0.18941862963307    0.51122568883490   -1.62186600328718
H           0.39916204865699   -1.03558634687181   -1.81871920913217
H          -0.48509993042584   -0.64520506701218   -0.15147060580959
O           2.43130262903871   -2.05150892686250    0.72972481570966
H           1.98053111480480   -2.34011376228210    1.53135239766730
H           1.94082482812950   -2.23719571708414   -0.90831079598138
H           2.40640335807569   -1.08525928412691    0.79018539585468
N          -2.91510308262418    0.59814118939482   -0.52545691477392
H          -2.96357363976936   -0.13514463510322    0.17160879482934
H          -2.36970566818920    0.23804738556935   -1.30089190294595
H          -3.85248677853576    0.79167822475823   -0.85323334158008
