    26
        -50.45652774  Gyration_radius:  2.46362890095 Dipole_moment: 4.629
 S          -0.89355729127044    0.00069674160155    1.64790006013035
O          -1.30164449231126    1.03871538124736    0.71240045572228
O           0.45917402981655   -0.56934907940155    1.16457474005856
O          -0.76373327094125    0.41322232795092    3.00055975164420
O          -1.85893152731640   -1.17322956253532    1.53994024179916
O           2.30041074525692    2.32456241886253   -0.12766159559756
H           3.17648532314843    2.24997468767374    0.25359083457886
O          -1.38974862814403    0.68681733690470   -1.85818655147198
H          -1.44045503616983    0.91112493960025   -0.89767531118128
H          -1.91998171779102    1.33706796569040   -2.32112355928055
O          -1.84307697270636   -1.85681598823776   -0.87605738262311
H          -1.92387074566222   -1.48468510022118    0.54757565844270
H          -1.78445375188451   -1.04077281868823   -1.40107317812276
H          -0.95406650193923   -2.30115447743687   -0.95818708817495
O           1.19979605728095    0.14885139932337   -1.14771565587159
H           1.66501736085317    0.98361271761587   -0.89357342742859
H           0.73684812330693   -0.29358001157983    0.21137053901679
H           0.38818757430680    0.41290186187430   -1.61425669795116
O           0.54027250988369    2.60328644077892    1.89253012547929
H           1.69314803902096    2.51943315190172    0.61889042579540
H          -0.25576058083164    2.36091503655361    1.39705115268345
H           0.48195231520271    2.06660701009783    2.69106020717537
N           0.65660583880857   -2.79884761181202   -0.93231185383444
H           1.19100046654238   -2.03897206226687   -1.33906889382681
H           0.95018096576587   -3.66587710245030   -1.36321021553611
H           0.89020119777504   -2.83450560306349    0.05265721839394
