    26
        -50.45652762  Gyration_radius:  2.46334229798 Dipole_moment: 4.623
 S           0.44185797660077   -1.57145033266762   -0.92067576559434
O           1.26887154933174   -2.07490507656425   -1.95956587472982
O          -0.78656074314963   -2.45500941967458   -0.74257500378967
O           1.09245977497032   -1.39715994564658    0.36989212353991
O          -0.13000511869183   -0.20227631209129   -1.35298882854676
O           2.35654107603932    2.25565526346226   -0.26191430571674
H           2.47785360258463    2.82917386692362   -1.02011471477342
O          -0.05762813012014   -0.26764086569043    2.40466440891587
H           0.36472923236856   -0.45718219757566    3.24369509866217
H           0.45257988755822   -0.75530514109750    1.71368483500482
O          -2.19158784581257   -1.33620779902516    1.01154534281729
H          -1.39910224735392   -2.06026510256508    0.00275403498807
H          -1.58015696308163   -0.96832014739844    1.67178059020840
H          -2.55958204267804   -0.55532283101209    0.51194016015661
O           3.10363308657088   -0.23055185667951   -0.98163800400941
H           2.72332796254313    1.38187470519427   -0.51891293529691
H           2.64909581597382   -0.70728463229231   -0.27169860408713
H           2.84293217205200   -0.70729891990901   -1.77775745546061
O          -0.11624549696130    1.61168857247338    0.41370517625384
H           0.79334342371827    1.96224232734318    0.24738495854863
H          -0.14595387464638    0.51951842139639   -0.61800842929572
H          -0.08434119604125    1.14741940513825    1.26781639855825
N          -2.88028675815331    0.79853231757400   -0.43953387547968
H          -2.58005812946912    0.52630929460642   -1.36783524720439
H          -2.24556058256672    1.52210888948298   -0.12020157241771
H          -3.81015643155057    1.19165749632398   -0.50544252121890
