    26
        -50.45059454  Gyration_radius:  2.46318353316 Dipole_moment: 4.138
 S           0.98435829787352    1.40173114604894    1.03429625080282
O          -0.03292144923707    2.33849657392764    0.36158717333722
O           1.48168062303673    0.47934850356573    0.03145908252503
O           1.96715349006831    2.12635517070542    1.74857259084240
O           0.11194509774491    0.59230426688857    2.03325570268686
O          -1.49126016345989   -0.90419597439486   -1.43083518786333
H          -1.96797401260542   -1.51483456940589   -1.99368669581531
O           2.04519333616244    1.25610151482898   -2.46767594030170
H           2.02652683300569    0.86242143599796   -1.57455432857071
H           2.68546543259146    1.96863654879206   -2.43838287104550
O          -2.13432202582168    0.40785097556704    0.80368663894651
H          -2.00309924857427   -0.13120215134914   -0.00802430596087
H          -0.78845392516575    0.47552842460377    1.59913779366186
H          -2.29477962035103    1.30924370600848    0.51064113946544
O          -0.55521217162197    1.58368406669226   -1.96765740499711
H          -0.89840173108924    0.66959725155173   -1.90082043811750
H          -0.25042462516273    2.04263205812261   -0.61782032639569
H           0.33963217155847    1.50584299823178   -2.36612214217148
O           0.56742438758470   -2.03315899746134   -0.40681239645498
H           0.32888054655993   -2.31102147066646    0.50821878252785
H          -0.68036411116549   -1.40352167806161   -1.08395511834182
H           1.09285622338435   -1.22301691840798   -0.29251356002757
N          -0.08453382699314   -2.41125664663536    2.21333945893578
H           0.13373347051226   -1.46276274581741    2.50198652450571
H           0.47513085717248   -3.04455820708143    2.77016443633038
H          -1.05823384600971   -2.58024529225390    2.43251514149269
