    26
        -50.45652756  Gyration_radius:  2.46333372593 Dipole_moment: 4.622
 S          -0.46269968500117    0.62491504853059    1.70537477730708
O           0.81551438891518   -0.00428595434163    1.10622423232000
O          -0.58578969937162    0.21824242278118    3.06038716498583
O          -0.22039640960834    2.12675922102941    1.62015960014309
O          -1.58086316729222    0.27458319178608    0.84154490958599
O          -0.24735136730238   -3.25716933942943   -0.20173329110054
H           0.41391085195288   -3.87481990089090    0.11395492317881
O          -1.56784207146651    0.64563531616636   -1.72786485132743
H          -1.69738452702018    0.50854587547005   -0.75836723449590
H          -2.43914858358331    0.63163096976033   -2.12655676083431
O           0.58741902484323   -0.96751839934690   -1.22454972981725
H           0.28438235183199   -1.87441105302349   -0.97255266005635
H          -0.17810119316432   -0.51803736483773   -1.62189491444918
H           0.71849992276433   -0.36711720247579    0.14688991482736
O           0.12135321004731    2.63283765307162   -0.81488222814539
H          -0.10387510616977    2.40865556336408    0.62333509005087
H           1.03200642769953    2.25928350168222   -0.97581284260300
H          -0.49305340678771    2.06560245123578   -1.31074147138480
O          -1.45836692259680   -2.17412721298959    1.94707301066194
H          -0.73592300763239   -2.95005883106978    0.59263539377324
H          -1.03317584482431   -1.79898180471187    2.72650877354697
H          -1.83646479117622   -1.40245806425614    1.50043991501238
N           2.46349899965000    1.37532123264950   -1.07958640916963
H           3.27745305689670    1.73824080546233   -1.55844125180754
H           2.21342111652740    0.48540239515031   -1.49665806366113
H           2.71297644184977    1.19332947923932   -0.11488596652742
