    26
        -50.46515664  Gyration_radius:  2.51599855711 Dipole_moment: 4.765
 S           1.08130517955719   -0.48776850570380    0.42602810219243
O           1.70554416066065   -0.36779093275294   -0.87033925633436
O           1.30756441828915    0.68038450263955    1.28771092061550
O          -0.36993999063813   -0.69985574811509    0.29685088290439
O           1.67757409109451   -1.72616286877675    1.13890954559267
O          -1.20176143407767    0.28187977434947   -3.41248233862114
H          -1.08336626737541    0.14228336816870   -4.35312589428854
O          -1.53412516833621   -0.73117084237225    2.64291799989305
H          -2.06335288589134   -1.52796137722621    2.70864467347809
H          -1.15194870175114   -0.73192179074113    1.73477465706787
O           0.54197310324272    1.73513482576635   -2.04487732488285
H          -0.17754324071868    2.04579490336159   -0.80147439456008
H           1.12820614888543    1.01619679138662   -1.72438246522490
H          -0.11439079960875    1.29051942489742   -2.63686553214487
O           1.02844626570920   -0.88501669995371    3.49190313183888
H           1.49669711491140   -1.58417610427419    2.11317308405252
H           1.32540959061953   -0.02799580831183    3.15702422009768
H           0.05143617083407   -0.85682758587484    3.42067938306288
O          -0.24525248585510   -1.83049487016150   -2.11686058672582
H           0.70112740691628   -1.63617445238929   -2.10876052704695
H          -0.51923922151106   -1.58225628735721   -1.21602964743600
H          -0.95025752403036   -0.56924299143898   -2.97399894340278
N          -0.59575277073869    2.05483184918377    0.22432953358601
H          -1.37103430492370    1.39481076351512    0.26629070161323
H          -0.86441194811980    2.97853522996463    0.54731204740798
H           0.19709308282306    1.62444539221509    0.80264801721697
