    26
        -50.46515662  Gyration_radius:  2.5161556668 Dipole_moment: 4.763
 S          -0.77394706597061    0.99027641960145   -0.08605595794109
O           0.60394087395059    0.55742411029145    0.20008802123371
O          -1.16074786807007    0.63478157231251   -1.43092789555712
O          -1.66261993532665    0.42758288623644    0.93956923389162
O          -0.81989338276650    2.53276031053727    0.04029219127169
O           1.46025259715103   -2.00842708698476   -2.64606148821151
H           1.57718570470436   -2.20553858628298   -3.57654522563986
O           1.24585127805648    1.03462037907891    2.69433084417758
H           1.06278046188726    0.83413243479274    1.74723598742458
H           2.07002348221811    1.52431824916771    2.70728104578221
O          -1.03935547111538    2.47731932764268    2.61197303597362
H          -0.88943828846753    2.71676330059333    1.02183786625353
H          -1.64698534962285    1.74439018978444    2.44342446703997
H          -0.19480181341136    2.04936524288351    2.86493489794345
O           1.42274879129696    0.62962269663174   -2.33844110962585
H           0.51007479358050    0.83601706001496   -2.57904545712119
H           1.39643349685306    0.66036691806774   -1.36553440020280
H           1.57448493616668   -1.02928676062122   -2.55555551747505
O          -0.95985961683117   -2.02914635882370   -1.56659047041059
H          -0.68516101025678   -2.09232447474277   -0.12411054218888
H          -1.17874574529206   -1.07639935420465   -1.65383117018872
H          -0.08501198723488   -2.13679510934281   -2.01604187139802
N          -0.49285375120157   -1.86895504874999    0.94378120310921
H          -1.06958389616727   -0.98002878811880    1.10329625749485
H           0.48394292905570   -1.59851724035242    1.04951053902789
H          -0.74871417316988   -2.62432227943561    1.57118551535005
