    26
        -50.46515660  Gyration_radius:  2.51624144732 Dipole_moment: 4.762
 S          -0.21015384651240   -1.06442572838518   -0.63965450870689
O          -0.03289558948582   -1.86984750324916    0.57612188865219
O          -1.25194340058715   -1.77896408890166   -1.53489773764544
O          -0.76857654723172    0.24323986496728   -0.25744021252095
O           1.00723768504855   -0.90652798753516   -1.39973366237727
O           2.16293865925918    2.79137523900804   -0.83481381208617
H           2.78806298660663    3.21589815269681   -1.42416820584170
O          -2.87392739190948   -0.04011818126678    1.27492792657536
H          -3.59317152594568    0.47113398060467    0.90009047181807
H          -2.09142333538222    0.12838924898214    0.70049821113200
O          -2.64557753919779   -2.61181901525617    0.47225805725733
H          -1.78194928093381   -2.79274810555814    0.86750819443679
H          -2.93010434380978   -1.76265095503835    0.87018084611446
H          -1.92215103345176   -2.16992916625014   -0.90236279408341
O           0.30604536093940    1.58258526370673   -2.29974688306362
H           1.42604858587733    2.46051516766950   -1.40709109820447
H           0.75760216255681    0.76287969073218   -2.53983740721631
H          -0.28206627010354    1.29581103040920   -1.57860274847641
O           2.69981799596731    0.41097920990595    0.19845553842356
H           1.74633957077398    0.30514875666537    1.31197292360068
H           2.24648483829556   -0.15357204386824   -0.46414621124098
H           2.61517038081006    1.33465868957328   -0.14598091701397
N           0.87248202839660    0.10501738533608    1.96280670421715
H           1.10501780275842    0.03510361198970    2.94805225432618
H           0.48575440482164   -0.80905737631690    1.55899848267422
H           0.16493765237221    0.81692484937403    1.78660469924719
