    26
        -50.46515677  Gyration_radius:  2.51569960202 Dipole_moment: 4.766
 S           1.06254521501165    0.52253670380984    0.43598844432205
O           2.00052842136929    1.74094391016205    0.25443734596733
O           0.51761850005850    0.57297497676597    1.79939677754908
O          -0.04966851184397    0.66622708062075   -0.51812121333316
O           1.82185305569010   -0.67651169090558    0.17101089200648
O          -0.41833221206951   -2.87288711667663   -2.17276885056680
H          -0.04953210773351   -3.58707562494861   -2.69462179527251
O          -1.54493578904984    2.73493751067295    0.06987319100595
H          -1.01854627147826    1.94766613668150   -0.20174706644214
H          -1.63736815422427    3.27627786296851   -0.71599406158184
O           0.53302346069124    3.28891538126716    1.70947580469591
H          -0.29958121460594    3.30466479974677    1.19277137944129
H           0.45616694109480    2.51093268254053    2.27844712547868
H           1.56575925290492    2.48778547642664    0.75931296560200
O           1.11425318116958   -0.72476726396763   -2.47449863768285
H           1.83040765614082   -0.91301170550431   -1.85393348026779
H           0.10308977121230   -2.06408746770950   -2.40532575474154
H           0.56770950496194   -0.08889424658843   -1.97926040415457
O           0.09286154368762   -2.70243809777361    0.42174715935440
H          -0.93953239351019   -1.77551665233122    0.90744624310889
H          -0.13041863867500   -2.88759649461340   -0.52422408160530
H           0.86279967691641   -2.09460677477621    0.39067226623596
N          -1.52479268022200   -0.89100548376011    1.22703681601223
H          -2.25998638601661   -1.10698926835948    1.89230734490340
H          -1.88556350734913   -0.42140057469114    0.39770110252751
H          -0.77035832408507   -0.24707405905957    1.63287047743661
