    26
        -50.45059456  Gyration_radius:  2.46317094954 Dipole_moment: 4.138
 S           1.60592823979735    1.18707395938206    0.12503481592584
O           1.07588107563981    1.72169784628092   -1.21591544120917
O           2.09375580488212   -0.24387843380470   -0.23355761660584
O           2.69875996415058    1.95211186488199    0.59576263874345
O           0.48425028049808    1.05805114709171    1.03552708106168
O          -1.91688861690396   -0.87273248950063   -0.80776165799526
H          -2.73007563461567   -1.36952347499615   -0.90188451854096
O          -1.46503562837501    2.88823847579248    1.16693839513110
H          -0.76832645709611    2.22573063904455    1.33628716276690
H          -1.07965081495519    3.74451560097284    1.35872271838806
O          -1.42721495972002    1.75765501532047   -1.24963316319774
H          -1.72763899165896    0.84095640060637   -1.08468933309492
H          -1.63856369143354    2.26043330910528   -0.43224677524204
H           0.03069012247952    1.75504545144731   -1.23915001085136
O           0.43950259460450   -0.96565914078775   -2.05949467757609
H           1.47133122571291   -0.58979179618710   -0.94471188986004
H          -0.45729239309618   -1.02930732540140   -1.66152006099386
H           0.42398700689650   -0.20659830015975   -2.64916912946112
O          -0.91122969874710   -1.21247370954487    1.52344179466894
H          -0.43930202812578   -0.36336637215339    1.56549727382389
H          -1.59053850250222   -1.02890412550669    0.13897830092501
H          -0.20202126867509   -1.89227689333981    1.44416553694025
N           1.25942433892239   -2.81003381733847    1.11212144610873
H           1.20978528970918   -3.47882320134106    0.35387638636085
H           1.68601445869881   -3.26990445421291    1.90640949383208
H           1.87446830391427   -2.05823616565185    0.81697124995309
