    26
        -50.45059460  Gyration_radius:  2.46315797141 Dipole_moment: 4.139
 S           0.87833683581470    1.41557048543853    1.10843460752374
O           2.14738005813923    0.90884627862118    0.40297625526852
O           1.13882623299607    2.56933355874012    1.88440528061550
O          -0.17058717221880    1.54406722124681    0.11492805507777
O           0.50161077904513    0.23616941572773    2.04719581789217
O          -0.21834993862238   -1.65156057366380   -1.52075252995705
H          -0.58173632017805   -2.30572624591378   -2.11820543498063
O           0.29770779345306    2.50959548721108   -2.33761800854651
H           0.68517768134890    3.38296197299665   -2.26271511647529
H          -0.05048078692024    2.28337434818989   -1.45410844070508
O          -2.08864454890968   -0.29453112124506   -0.41544485766037
H          -1.56492742725765    0.50979368985136   -0.25972149270588
H          -1.00509608876491   -1.13632204116456   -1.14289340014338
H          -2.24058023679530   -0.67487088694637    0.48102038862199
O           1.66474305104931    0.24895330273804   -1.96332803101455
H           0.97208511110661   -0.44168116278473   -1.93088359631287
H           1.22526854172243    1.05329794270170   -2.31755056090595
H           1.96321357405709    0.64211433483022   -0.59153852571839
O           1.24977532251227   -1.81927667677972    0.70291234043215
H           0.76261718115102   -0.60842355217327    1.56622796646762
H           0.70149694663463   -1.87709603914425   -0.11115981511464
H           2.13667224148644   -1.58049179572636    0.41914053022351
N          -2.15560687352145   -1.18452773499661    2.16071930007314
H          -1.37982365052094   -0.61176107989432    2.47802472338372
H          -1.90813242132163   -2.15196146189755    2.32654796044290
H          -2.96094589548403   -0.96584765596296    2.73338658421857
