    26
        -50.45300963  Gyration_radius:  2.43480953738 Dipole_moment: 5.197
 S           1.50449388484780    0.88653206160545    1.15725210384442
O           1.08008639036974    1.81106346918180    0.11657596233768
O           0.23008025751310    0.26582811154419    1.77333205680905
O           2.21781193192187   -0.29214950784433    0.47557139130753
O           2.32024271835616    1.43471627164996    2.17424776105889
O          -0.52170900367414   -0.62620160176057   -2.17650312702228
H          -0.93793124448649   -0.64402160609725   -3.03901527322355
O          -1.31484517291197    2.95627380112810   -0.21226618847991
H          -0.37184669956134    2.70276951945873   -0.17798480944543
H          -1.43796399099247    3.62747047812379    0.46048396977747
O          -1.67360770403851    0.33006482761654    0.09343818875590
H          -1.75988709170472    1.29856246960280   -0.04309963543137
H          -1.33882297938657   -0.02121688757034   -0.75614245842435
H          -0.53904327815110    0.27629661744471    1.09496293662836
O           1.73053587245831    0.71309358199551   -2.19417989061538
H           2.46595531121790    0.15237577800238   -1.93339461341806
H           0.31419978118037   -0.09470403899688   -2.27605351898798
H           1.53938815828226    1.26785225188424   -1.40878206107098
O           0.64905637845714   -2.12444446476017   -0.19906921944103
H          -0.04440529442129   -2.24996951809520    0.50642207341585
H           0.18131848872512   -1.78695002544894   -0.98085179834317
H           1.57544320231513   -1.07198161077841    0.21817506484081
N          -1.28347866655312   -2.26186983835665    1.64418674730338
H          -0.86244244954273   -1.78598765092741    2.43301419658577
H          -1.71989644996251   -3.11246969962411    1.97516551203642
H          -2.00273238025879   -1.65093278897652    1.27451461920150
