    26
        -50.45059454  Gyration_radius:  2.46320677982 Dipole_moment: 4.141
 S           0.55624803440442    1.35557429788120    1.36238105629836
O           1.25369841066669    0.90779144148533    0.17215765290882
O           0.04918396520287    0.09623812030366    2.11812208729785
O           1.30386164600467    2.16616814580651    2.24840426247097
O          -0.74537897259822    2.04715077740292    0.92356296667031
O          -1.21794016687712   -0.96723217353464   -1.63356706754238
H          -1.51245566478180   -1.54600428558629   -2.33733088471747
O           1.38449784461137    2.39502907361644   -2.04969138046177
H           1.54742742411021    1.81567859439226   -1.28098910874294
H           1.76744640267865    3.24692596762126   -1.83505790953600
O          -2.09812745953025   -0.50210366071716    0.84386732013062
H          -1.85572349727138   -0.76112462470847   -0.07309179978177
H          -0.79414590268224   -0.19706488379478    1.65392328138095
H          -2.55242349335420    0.34258982474987    0.77908409032799
O          -1.14925876461014    1.74152415937995   -1.52796416877134
H          -0.91994393645789    1.93914981561974   -0.10222503551043
H          -0.30269876424619    2.05200697141948   -1.91852760235682
H          -1.18189870038995    0.77736157428418   -1.69280450630805
O           1.15199789527954   -1.58538895943904   -0.88335009635069
H          -0.27095504669016   -1.24757537314164   -1.40624092902008
H           1.40152218763229   -0.70107784505388   -0.56530472378864
H           1.07149613104041   -2.13402245807291   -0.06851738306016
N           0.81935320707046   -2.76449218022825    1.55214848834339
H           0.74542329242859   -1.89417701273363    2.06958611856252
H           1.58421588476251   -3.29841944468945    1.94501980222854
H          -0.03542195640030   -3.28450587225950    1.70640545933326
