    26
        -50.45059454  Gyration_radius:  2.46318245799 Dipole_moment: 4.138
 S           1.76964887891480    0.45350175952091    0.81623682887918
O           1.42021403728229    0.27069861649421   -0.57957051490170
O           0.99506978309223    1.67054476107266    1.34893394168842
O           1.16094961234296   -0.73051454142946    1.61735223534459
O           3.15224436687600    0.55105472054826    1.09920068023460
O          -2.16982435925637    0.21380747575812   -0.57880970834412
H          -3.02727796165629    0.08556968699336   -0.98533710905642
O           1.13512527364200    2.33374186439540   -2.26158000831686
H           1.94373798906672    2.84815347341749   -2.26776571464245
H           1.34522183384497    1.49115974711625   -1.81558517688792
O          -0.69017694489429    2.47162868413387   -0.32025096307591
H          -1.28757357399318    1.71898090038382   -0.50582326527018
H           0.29623345610488    2.02456105320954    0.65585213660588
H          -0.14342140774026    2.58585353854800   -1.12869755417432
O          -0.45700566999836   -1.43286128696789   -1.53593596827299
H          -1.53907119824812   -0.44545023710343   -1.02009749080176
H           0.32821243876109   -0.88259809572482   -1.37433579718363
H          -0.37689509186095   -2.18093887961595   -0.89926021809949
O          -1.28251277483316   -0.00698034428784    1.92956110919151
H          -1.71299483181210    0.02966560495094    1.04637341441759
H           0.19001288919622   -0.50962071448753    1.76333906679009
H          -1.20169222950552    0.90174969100010    2.23255939564137
N          -0.04607860674333   -3.24095397788657    0.46282864742589
H           0.41414119117775   -4.11547020907222    0.24425696249278
H          -0.82490002207687   -3.44312463254067    1.07703437298411
H           0.60861293231844   -2.66215866842619    0.97952069733262
