    26
        -50.44829508  Gyration_radius:  2.45635097709 Dipole_moment: 7.708
 S           1.95773999561616    0.09569390487325    0.71360544865214
O           1.24213869691878    1.22133304420825    1.30961700248585
O           1.38047614935717   -1.19860901464947    1.43303377424988
O           1.50862068832680   -0.07181514573102   -0.69745219452809
O           3.36889414755264    0.11620980270264    0.84896631701491
O          -1.93378204417879    0.37197293832796   -1.29677050474795
H          -2.63565756223959    0.50924060459702   -1.93386691924232
O           0.59054660570921    3.52881815133404    0.17496553147743
H           0.84357124205612    2.73570975342870    0.69340080860494
H           1.36646772519037    4.09094768835088    0.15923607924209
O          -1.04426847031519   -0.04801916340281    1.34695108894400
H           0.45309736428219   -0.92776339436832    1.53985380642596
H          -0.38008789879225    0.66300090933187    1.45739540611314
H          -1.54069827275981    0.18991032360437    0.55057088721257
O           0.05547106501527    1.86476308881707   -1.85744332514951
H           0.14293105478150    2.61393498248455   -1.23059425769132
H           0.74342804674731    1.22939452632847   -1.57749800520453
H          -1.20238276728670    1.04502382964097   -1.53255442278781
O          -0.30041857943950   -1.61255294882382   -1.30715327393286
H          -0.52729094762103   -2.21047634766399   -0.46622095666148
H          -1.03199771603853   -0.91443537959068   -1.38319335066140
H           0.56150026388846   -1.01153508874313   -1.05510738022976
N          -0.86702897645487   -2.97171046553964    0.78777321512543
H           0.02017309544153   -3.16199929398856    1.23999524336088
H          -1.39368174581243   -3.83244259347161    0.71372561453233
H          -1.37776116994352   -2.31459471205789    1.36876436739649
