    26
        -50.44829512  Gyration_radius:  2.45637153908 Dipole_moment: 7.709
 S           1.62799274872914    0.63373991760913    1.13972776030944
O           1.60760247314274    0.29383237795339   -0.31109183219772
O           0.53420076426489    1.55885001421375    1.42637339862563
O           1.21634128657703   -0.73359679355905    1.83743968875151
O           2.90985883616050    1.02695699677560    1.60049978446031
O          -1.56975092740601   -0.20240558192259   -1.74816056891504
H          -2.09732368675203   -0.28088431789653   -2.54368009106507
O          -0.34574209689991    3.56516745217724   -0.06914597453784
H          -0.04866567698147    2.88880093146183    0.57595413839693
H           0.24872738633790    4.30913115318495    0.03788539923856
O          -1.30941643071075   -0.25973271004831    1.06019525985236
H          -0.88791562497869    0.60417533641650    1.24681950533894
H          -1.62851129648537   -0.19479340002816    0.14847275534359
H           0.25534628993475   -0.70916102557034    1.69307355905036
O           0.07411388062718    1.73249080926902   -1.98013097262744
H          -0.98782001842636    0.62745065723696   -1.87549245080926
H          -0.18509893783808    2.50486197293456   -1.43416782324940
H           0.80045184946261    1.31131398162187   -1.47970688926149
O           0.44191326501832   -1.69043447983788   -1.16091907394459
H           0.15996787542194   -2.28975824937529   -0.33778499007903
H          -0.39254925752482   -1.21139877079776   -1.48132134292341
H           1.03931217337560   -0.87510297121326   -0.77915377528658
N          -0.29342336963222   -3.05807724605951    0.87519268795475
H           0.46776865697684   -2.98895718780184    1.54127599955085
H          -0.55804720086792   -4.02918872127270    0.77238134978063
H          -1.07933299152718   -2.53328015547678    1.24546450824565
