    26
        -50.44829483  Gyration_radius:  2.45647400262 Dipole_moment: 7.718
 S           1.90358341136206    0.35676951340986   -0.77133282333383
O           0.95370714284626    0.93081812057772   -1.72151153153057
O           1.75004522602333   -1.21800933097063   -0.92230353120126
O           3.26254520420420    0.71421440511909   -0.95986562690706
O           1.41847673212440    0.61382168408248    0.61388970413437
O          -2.05038616192319    0.28266111838751    1.13020431991967
H          -2.80693627194231    0.45018383400387    1.69312888134148
O          -0.36506013333460    3.22421979388215   -1.52585413812852
H           0.23174788713761    3.93883854792467   -1.75262316280983
H           0.12457966685184    2.39544732162693   -1.71340863697814
O          -0.58083786381895    2.36217461358078    1.00368985313436
H           0.27060865812852    1.88412008368604    0.96012491655331
H          -0.65298678516885    2.81544276020781    0.13704714882596
H          -1.54564336725809    1.16826641346045    1.06383487873079
O          -0.89570699971577   -0.83867081436802   -1.18613240994311
H          -1.49367875595589   -0.46592943782904   -0.52227442374935
H          -0.44141542760942   -0.06761800164614   -1.58370520001928
H           0.79414707763278   -1.27515420082835   -1.08858718558651
O           0.05144790607248   -1.01860652417577    1.83306354680424
H          -0.84463842961176   -0.57421028082101    1.66487065386136
H           0.05505931859359   -1.92652221059076    1.29242360487010
H           0.73531319292603   -0.34449651823743    1.33921528023733
N           0.02394864250311   -3.16452165069334    0.43668727040089
H          -0.25476005706161   -4.04355866249036    0.85284875492490
H           0.95939347668481   -3.25712281891233    0.05695744979881
H          -0.60255329968960   -2.94255776838734   -0.33038760335154
