    26
        -50.45300976  Gyration_radius:  2.43482792114 Dipole_moment: 5.197
 S           1.62563603766292    0.94619548642873    0.92250156932365
O           0.55113424443719    0.16546273431943    1.71288013520015
O           2.28515757898440   -0.10959450606127    0.02064970374366
O           0.93212063907533    1.89389258198372    0.06307390799257
O           2.57729925409974    1.50016859720081    1.81010941975916
O          -0.88710887676550   -0.52480617471355   -2.08294970266230
H          -1.46097038724123   -0.52486298211872   -2.84990027069458
O          -1.56507931364072    2.82508664558760    0.29310609842965
H          -0.61644308201967    2.66104270364615    0.12616009412803
H          -1.60706119864413    3.43385542882805    1.03196397347252
O          -1.64462082926805    0.16205990738727    0.43674143076096
H          -0.33481731201947    0.14926793124281    1.19637346459841
H          -1.83368764821577    1.12494270711953    0.40167588944190
H          -1.45604162661963   -0.09738215046328   -0.48758560954043
O           1.20247624698324    1.02133789189224   -2.41363287345544
H           1.12522319242972    1.50127253896138   -1.56228301618778
H           2.01740253229968    0.51689631757711   -2.34522518064590
H          -0.13265829825839    0.08966862952674   -2.29365985972294
O           0.76778891581518   -2.03370455561955   -0.49821394153470
H           0.23877306687054   -2.27265709448458    0.31260488322604
H           0.12963353392168   -1.69054468158926   -1.14542221597397
H           1.67000640132774   -0.92805573340955   -0.17583581964379
N          -0.74852528852852   -2.48063106744314    1.65854431519270
H          -1.04333214150865   -3.38957293476502    1.99084965948826
H          -1.57205708614264   -1.91577140702693    1.48548142312123
H          -0.22024856503673   -2.02356679400923    2.39199251217650
