    26
        -50.44829511  Gyration_radius:  2.45633570306 Dipole_moment: 7.708
 S           0.27332096104173    1.66829525950674    1.22203698619732
O           0.77515201455669    0.47063194127262    2.13832699573909
O           1.25857749329852    1.77317610189215    0.14838557242109
O          -1.00525724343769    1.15097586896056    0.65762932324866
O           0.09986856778421    2.82726113885046    2.02002803961859
O          -0.72121774240135   -1.39781736503450   -1.75644138513300
H          -1.13969260784607   -1.91041148124707   -2.44885574578180
O           0.87005030659670    2.55334215032625   -2.35693584166839
H           1.11889638095276    2.31381403415205   -1.43905275913689
H           0.81959222512080    3.51011501591842   -2.37423903198650
O          -1.33164464216603    1.06494127111255   -2.00575844733677
H          -0.94456491867862   -0.42072970170490   -1.95371355786865
H          -1.36566882697995    1.26015571184321   -1.04864247552086
H          -0.58005307501188    1.59950941126047   -2.33921917307300
O           1.49099249545264   -0.81965689729554   -0.10483974905310
H           1.61927092558797    0.13893094275104   -0.25808341752936
H           1.14150270472928   -0.11658974093705    1.45579489314752
H           0.90028691021327   -1.11321276786884   -0.81348349942345
O          -1.55338198880917   -1.24014760881340    0.67037889396712
H          -0.84839500917535   -1.74095261996338    1.27727132649794
H          -1.36002912730292   -0.18030326948651    0.75527343744442
H          -1.30219284054495   -1.42582491707088   -0.29436655659133
N           0.23399673282347   -2.41275930877262    2.08015570044243
H           0.42511960716187   -1.78864027049550    2.85590052410495
H           1.04993848418961   -2.41756256528202    1.47646922124406
H           0.07553220284629   -3.34654035387756    2.43598069603618
