    26
        -50.45300970  Gyration_radius:  2.4348512608 Dipole_moment: 5.195
 S           1.82685179632814    0.99084760364405    0.26309617540399
O           1.24821504636044    1.36493316614125   -1.01870392768619
O           0.69273912953118    1.03092384781728    1.31257950773976
O           2.22669904300769   -0.49116167588040    0.18289185256233
O           2.92133269627024    1.77379599139060    0.69829190830933
O          -1.11197071140684   -1.47014934189939   -1.41550654276667
H          -1.73133414090138   -1.81138357072363   -2.06158055798335
O          -1.02638581620176    2.69123041027169   -1.49113514091762
H          -0.13510050262539    2.29095381780425   -1.48735370771696
H          -0.90915937718605    3.61191428088890   -1.25263786660446
O          -1.55613496231078    0.68346276128107    0.18448982949812
H          -1.57726845730976    1.45886907778407   -0.41748250221920
H          -1.48207289517034   -0.09626105904728   -0.40179287244864
H          -0.21717913898610    0.87832178934405    0.86481021198125
O           1.18520226154403   -0.82142907036535   -2.49687056278491
H           1.25342716204416    0.06954218438992   -2.09365348030784
H           1.90320364256579   -1.32881976512011   -2.10920945874673
H          -0.27937065129728   -1.24503245729528   -1.91265689490143
O           0.36592299087072   -2.03993511190942    0.82478248834471
H           1.46659780472718   -1.14149128083642    0.47703935012024
H          -0.13692691434915   -1.65881285447674    1.59707154303161
H          -0.24782101956738   -2.03027492557494    0.07173051262831
N          -1.04586845583797   -0.85709952218637    2.76315263507383
H          -1.46779901095531   -1.32809046415332    3.55287829466480
H          -1.77038425926083   -0.36236556980771    2.25561717774076
H          -0.39541524988591   -0.16248828147824    3.11015202798058
