    26
        -50.45269173  Gyration_radius:  2.57771665467 Dipole_moment: 4.546
 S          -0.88730864920053    0.19921533485547    0.28900461468173
O          -1.27430201136210    1.57179812054895    0.44601607786904
O          -1.43782840973736   -0.35122014694188   -1.02528444725727
O           0.63255354690795    0.11904834753391    0.07834787913006
O          -1.26239671383610   -0.67609959904554    1.37171748731854
O          -0.44735531099220    1.02332538036159    3.27340328636905
H          -0.81294651285120    0.29021518048242    2.74606065956992
H          -1.03893596137817    1.76711921612979    3.13475819127546
O           1.27234712462425   -2.43968939272979   -0.93709948267153
H           1.37349791313813   -1.60178521160962   -0.46750226427567
H           1.13995036945879   -2.18283867657466   -1.87702231521250
O           0.40327293081145    3.62527456815306    0.81868059138734
H           0.54390325646479    4.08070394842703   -0.01268049914112
H          -0.32465674669684    2.99075602109806    0.66844434510010
O           1.69277142606959    1.52141325418715    1.80855840200568
H           1.06952541151859    1.33238460714486    2.55268334492403
H           1.16656292899196    0.71009770279057    0.82136001862355
H           1.44683674238082    2.42362918255298    1.50113130533234
O          -1.25657498002320   -2.74486450624360   -0.39142559561095
H          -1.34330356747945   -2.53201915595506    0.54809211235590
H          -1.44724622606791   -1.39584491387085   -0.87116293120172
H          -0.27664256023729   -2.84450315657550   -0.57118296732850
N           0.42006599296028   -1.35758702946800   -3.29711897599129
H          -0.09662593975935   -1.99256928443503   -3.89256222369011
H           0.99750724590290   -0.77446142067951   -3.88945923245696
H          -0.25267130959713   -0.76149837013982   -2.82575737110665
