    26
        -50.44829507  Gyration_radius:  2.45636536613 Dipole_moment: 7.708
 S           1.45065805555387    1.37647967120460    0.59287300208742
O           1.93291702062838    0.77074876580446   -0.64603160398627
O          -0.02031481246880    1.59086894785905    0.48690944406960
O           1.57177464629607    0.23663586606770    1.69371345943048
O           2.14988259788751    2.52855323047638    1.03320694144668
O          -1.85653713354951   -0.97619037508540   -1.07717311393713
H          -2.67748611288164   -1.25442318233345   -1.48458170312438
O           1.16487432623494    1.29695358026287   -3.12986480802467
H           1.55473710556233    1.08263036266418   -2.25587177084503
H           1.58902789949154    2.10754315403807   -3.41511194038895
O          -1.63301600502830   -0.06196722829674    1.31468997428705
H          -0.92778530628365    0.71034298953368    1.04251320840129
H          -1.84611099033129   -0.48200227734973    0.41667793810157
H          -1.10967497827078   -0.78487110772635    1.87997641417764
O          -1.21837135998005    1.34978021797470   -1.90357478987030
H          -0.82850959082231    1.65530117008430   -1.06096307429465
H          -0.46348715858695    1.32517693519671   -2.52917595791183
H          -1.62115678451700   -0.07706963930805   -1.50088790335369
O           0.75889275354261   -1.51741486836897   -0.17003455486536
H          -0.09784424985511   -1.52258205437899   -0.62091518974545
H           1.28222543527097   -0.82360387830968   -0.62123461738139
H           1.34782783803060   -0.53916743184170    1.15264863401054
N          -0.30163849343791   -1.83271577891940    2.59889461218532
H           0.14885604976170   -2.37150728685636    1.86610514696973
H          -0.76904501301664   -2.46251991550544    3.23805683863522
H           0.41930426076995   -1.32497990689000    3.09915541392551
