    26
        -50.44829500  Gyration_radius:  2.45639284311 Dipole_moment: 7.709
 S           1.26652636451875    1.65047313458133    0.14580556296918
O           0.94458322507875    1.49584593974549   -1.27088514854564
O           0.04818223491401    1.36205166584751    0.95399697448206
O           2.22811522704091    0.43385844644925    0.49406465252970
O           1.89955202474815    2.86600260740370    0.50886773386077
O          -1.94204604146765   -1.32943752198253   -0.14274562307390
H          -2.78102592182412   -1.78931733709140   -0.09834936281497
O          -1.28685843894790    2.19381089260485   -2.52404642149959
H          -1.26740875097441    3.13951758319748   -2.67762217976791
H          -0.40626365534708    1.96244439692918   -2.15956624191972
O          -2.33408112824775    1.18645349394717   -0.27122344840807
H          -2.16784729619756   -0.34067919252889   -0.26464970140770
H          -1.55273799747272    1.43987620016107    0.25850649973306
H          -2.15097544441879    1.54376434471491   -1.16598587394466
O           0.70312777049639   -1.10235504747677   -1.09552802493148
H           1.83593951222070   -0.25315225371614   -0.07072954196118
H          -0.23225328006580   -1.31548730251082   -0.96550844410955
H           0.71028658027374   -0.19803677384057   -1.47111511014251
O          -0.40419632081570   -0.87052558576065    1.86485087088173
H          -1.06813969428600   -1.15777842282291    1.15413826455647
H           0.46122265308596   -1.46349857155863    1.74019297419013
H          -0.15737612658592    0.13376764247688    1.55219081589658
N           1.69010147196559   -2.28613617537978    1.45665709225060
H           1.83411159943555   -3.14823019582835    1.96632031198217
H           2.47614261007292   -1.66707046336121    1.62015996075317
H           1.65331881280087   -2.48616150420022    0.46220341843965
