    26
        -50.45269177  Gyration_radius:  2.57782134512 Dipole_moment: 4.553
 S          -0.34755633184287   -0.80908356616397   -0.36662866762947
O          -0.11061128336428    0.50941153405320    0.38588722202707
O           1.07231228679780   -1.27230163571532   -0.68743818604611
O          -0.98356123167673   -1.74994528822213    0.51009712335956
O          -1.05265762315262   -0.53389388199014   -1.59389571014609
O          -2.04797254649413   -1.17514547316753    2.89881686610482
H          -1.43282844518735   -1.41733365648795    3.59252526950063
H          -1.68754557260359   -1.54085831206221    2.06733705392351
O          -3.42658017510003   -0.26671236621494   -0.38363238786072
H          -3.56280021185097   -1.14861722251608   -0.02840461187410
H          -2.67714148843770   -0.34136055129445   -1.00163619408984
O           1.75095578136232    2.06043287996628   -1.06977720576660
H           1.01551929772513    1.84755078867693   -0.48100770669629
H           2.53760859406712    1.65579167559079   -0.64027767199645
O           1.32905788462842    0.10425635293486   -2.73772026725502
H           1.29842850942031   -0.77089094155397   -1.58875296921406
H           0.37436929835959    0.10196174716581   -2.89279663914244
H           1.54043972012020    0.96840744556527   -2.27833714545895
O          -2.21693811484685    1.09654207007876    1.52754882089683
H          -1.01032393145109    0.83498925043173    0.90621495379834
H          -2.85075269204672    0.77799856953013    0.83855007187009
H          -2.25084687491977    0.41063405176445    2.23268230380533
N           3.56687986179205    0.39254262159274    0.10778603224687
H           3.91622935782607    0.51869647130989    1.04925520033315
H           4.34625156734782    0.12805610823792   -0.48158612695442
H           2.91006434354209   -0.38112867151279    0.11519060227604
