    26
        -50.45812153  Gyration_radius:  2.42456288617 Dipole_moment: 3.418
 S           0.29937659700277    0.61365524823783    1.66878264887771
O           1.25318928774613   -0.03916233331703    0.64888116601724
O           0.40568490355450   -0.01581959179816    2.94214442764866
O           0.55089370067692    2.02802827004970    1.59848482025980
O          -1.11271893608705    0.30503499681236    1.12298030542098
O          -0.37507775090493   -0.82515307146228   -2.29833753647828
H          -0.43623639194824   -1.19940904488388   -3.17810487182945
O           0.72633570086183    2.83753372693006   -0.86927933512550
H           0.73429674905225    2.56383041802297    0.08359556420440
H           0.82501178694814    3.79104608451009   -0.87062049543966
O          -1.52016785203223    1.35121214041210   -1.14469592465577
H          -1.32468389475531    0.78008744493522    0.24011560342614
H          -0.78902033451134    1.99549991354974   -1.21082838828272
H          -1.26263730334555    0.57865561470495   -1.68372184851079
O           1.84356706650394    0.57441306084314   -1.98935038985510
H           1.55193227109475    1.48256289326201   -1.80593722517168
H           2.10823910401253    0.23219510034374   -1.12606730705013
H           0.50241608648337   -0.35888978413385   -2.25317579639849
O           0.33926087682627   -2.24181024971268   -0.00836260894119
H          -0.28989004978440   -2.39854092871401    0.76203494668583
H          -0.17160612300170   -1.94402285484339   -0.78001996679532
H           0.93001453293219   -1.02481284153270    0.41047223225964
N          -1.08860083292409   -2.34049393476438    2.19171599109494
H          -1.08644785780068   -3.13970309148758    2.81321134070981
H          -2.04360238095281   -2.01937734046880    2.09316039949149
H          -0.56952895565154   -1.58655986549072    2.64292225844154
