    26
        -50.45812143  Gyration_radius:  2.4245757614 Dipole_moment: 3.419
 S           0.91280552271899    0.05297729017233    1.55351582037472
O          -0.61238334865217   -0.18070539458681    1.47646662009013
O           1.44951941578188   -0.94862308510031    2.41235477849114
O           1.40203702946049   -0.14216883475609    0.10475852372550
O           1.17951592340777    1.42797562615965    1.88060677933273
O          -1.21997920403203   -0.05135223486547   -2.14775467731122
H          -1.61222792434629   -0.11942531239802   -3.01912927738463
O           0.47433598272996    3.01858218209848   -0.05537760224127
H           0.81871047936862    2.44760283481300    0.67841545729020
H           0.60337966654670    3.92385633673142    0.23229108088148
O          -1.77586843146474    1.51409354793704    0.00142113734664
H          -1.09347354808011    2.20588062872342   -0.09844413019393
H          -1.76441454778526    0.98829716647620   -0.82144115610005
H          -1.11234136501718    0.53818848005759    0.94394480092912
O           1.01386326086938    1.35725942028409   -2.19404322187141
H           0.84645224800738    2.12598804521103   -1.62446565935960
H           1.55955153959411    0.77464115247905   -1.65060483479215
H          -0.36803497950645    0.44900677805005   -2.26291229746689
O           0.21988156588910   -2.07585117142530   -0.88656135835588
H           0.97330038983570   -1.01824758405272   -0.32085536963902
H          -0.09103852804658   -2.53179932599990   -0.04441536406215
H          -0.52419881895402   -1.58596098716280   -1.27573396762719
N          -0.31049658591524   -3.01783321611463    1.50541558178078
H           0.36798242866637   -2.41222501503214    1.96836391596655
H          -0.11523101330501   -3.97365319131896    1.77611495495170
H          -1.22164713777505   -2.76650413638458    1.86806947524356
