    26
        -50.45300985  Gyration_radius:  2.43485103516 Dipole_moment: 5.196
 S          -1.00161800845837   -1.67173426615657   -0.76867202086862
O           0.38878269335967   -1.69490317465887   -1.19768718743166
O          -1.02782617733582   -1.90201152112574    0.75095539532980
O          -1.51866272546500   -0.22670307469980   -0.95154150090649
O          -1.86372664820859   -2.58402431022997   -1.42045150945254
O           1.79670381011454    0.61671359553777    1.33905927624144
H           2.64695915484961    0.96249471474330    1.61301810863928
O           1.66467229640866    0.04128444593544   -2.78305274056227
H           1.36205023005251   -0.07494403867670   -3.68482785998572
H           1.32628500755872   -0.72422865556684   -2.27893591040397
O          -0.82045155319208    0.22249458372239    2.06132013867954
H          -1.34586193465508    0.94438498847469    1.61712758051427
H          -0.97170510055530   -1.01969873869297    1.30346560415112
H           0.11270201371434    0.48186773307539    1.98469871326018
O           1.85684264278028   -1.97798778436555    0.97788432183750
H           1.23747439852350   -2.42096827950315    1.56389083858065
H           1.42465428231263   -1.98055462794730    0.09792595676894
H           1.91556504461596   -0.36434261814968    1.21854895068128
O           0.41773344908135    1.41462903063913   -0.86524355387405
H          -0.74273018645175    0.44221080141160   -0.90468800507103
H           0.95818314867616    1.20218056983629   -0.07792958557039
H           0.94731870716945    1.10805202942909   -1.63310057772118
N          -2.08843227277239    2.14611050422033    0.70394829290060
H          -2.62552010310591    2.89857633286687    1.11485600633201
H          -2.69360861443738    1.61440184973534    0.08993917785883
H          -1.35578354458255    2.54669989014475    0.12949208007224
