    26
        -50.45300979  Gyration_radius:  2.43486454029 Dipole_moment: 5.195
 S           1.98359333069045   -0.14022697610363    0.65895473945991
O           1.64188994971964    1.34581548739983    0.85358142108899
O           1.92082197090234   -0.42757198602795   -0.76627275784944
O           3.20591994281035   -0.45285980549804    1.29810674993803
O           0.81930055681663   -0.89841507796220    1.33596303053906
O          -1.36617153354028    1.12608937968011   -1.50582348004237
H          -1.92987580914294    1.30564532755214   -2.25913616918278
O           0.69159083217193   -2.45980158920650   -1.99715129776224
H           1.18036554888521   -3.26794708931945   -1.83488520671079
H           1.26602509856007   -1.72725538118241   -1.70044976628802
O          -0.81607280748630    1.75525789588662    1.10740785019699
H          -1.22189833859961    1.03232774778412    1.66159215074539
H           0.62328549389059    1.52137028992016    0.98950908864801
H          -1.18739446936782    1.65226480879319    0.21556783291766
O           1.12784902124248    1.78920311544305   -1.96013935810579
H           1.42598119508757    2.45452261060772   -1.33426888521729
H           1.52742134936210    0.94881260829590   -1.65154328830358
H          -0.44569225996107    1.39863893828808   -1.76965818710087
O          -1.04897442684017   -1.30798009562072   -0.33501806080769
H           0.05581207609150   -1.05554772169592    0.66943766173417
H          -1.23692280823305   -0.46269659494011   -0.79033820183987
H          -0.57955803603965   -1.86001203431167   -0.99758602453875
N          -1.85643301248893   -0.32167679913750    2.43210159150819
H          -1.03986202389629   -0.72667058745529    2.87381327754125
H          -2.14020366277048   -0.95207934210783    1.69098638289994
H          -2.60079718786527   -0.26920715908062    3.11524893653707
