    26
        -50.45812148  Gyration_radius:  2.42456408702 Dipole_moment: 3.419
 S          -0.27461706925513    1.07535585964467    1.42053315828950
O          -0.14041201689982    0.89804131335467    2.82748958910874
O           1.11843019565942    0.84002538233813    0.79541382860979
O          -1.15920119321386   -0.02801228951781    0.80708355448369
O          -0.81477323531777    2.32328717359650    0.95191301821292
O           0.33612253065172   -1.46997257154202   -1.95712551310676
H           0.39619127797839   -2.10060344036085   -2.67580094958329
O          -1.36071770724036    2.22592823015440   -1.59125575332370
H          -1.65098643916806    3.09474347365312   -1.87380838987537
H          -1.23152302815009    2.28728662710142   -0.61015288869693
O          -2.08581002811479   -0.43207136600675   -1.77411626328583
H          -2.19926409163347   -0.50517820376688   -0.81794094324874
H          -1.97086974652717    0.52005768511300   -1.92792225579343
H          -0.61071884957374   -1.16640033894831   -1.92997844491631
O           1.10884101585047    1.12319373784045   -1.71885138041382
H           0.96859583046344    0.18407624715662   -1.94710291659345
H           0.25901461000124    1.57922633583839   -1.87356672036908
H           1.15288023695237    1.02195577655786   -0.21256353107167
O           0.12616375285944   -2.14047857577696    0.73895631330129
H          -0.66306057288384   -0.96881062220195    0.84159734566798
H           0.49715808298324   -2.03661173870545   -0.15359699579343
H           0.83782711447554   -1.92543906014896    1.41797704274590
N           1.72760071539975   -1.26304515816457    2.62456246728351
H           1.94261755565769   -1.79793312238321    3.45681887829156
H           1.10594474600598   -0.49874318112688    2.89063922772716
H           2.58456630303963   -0.83987817369746    2.29079852235217
