    26
        -50.45812143  Gyration_radius:  2.42452223979 Dipole_moment: 3.420
 S           1.46093234054390   -0.12885461346500    1.04820487670193
O           1.30255958491889    0.37553891196233   -0.39983733800501
O           0.14443541415249   -0.88454928470757    1.33568804843333
O           2.52022412606767   -1.07614354139513    1.14536981665538
O           1.53776875929709    1.04756085412387    1.87211924730520
O          -1.98776638814744    0.21274729106060   -1.45163948546943
H          -2.69421760319774    0.29746158174495   -2.09315002100986
O          -0.26376263714302    2.80019620571015    1.19513961851479
H           0.47951613864679    2.19271417350873    1.44319024764366
H          -0.22225603966304    3.53306790971376    1.81165836809434
O          -1.88063560748763    0.62870428847309    1.23049662616593
H          -2.11366884907270    0.45624395923762    0.29793871425245
H          -0.67966326834121   -0.27635309627925    1.37098071971524
H          -1.47740856630044    1.51796127456411    1.25884462280963
O          -0.35993339614524    2.29166633992737   -1.51717179357153
H          -1.40128188762725    1.00663893700448   -1.57502692202122
H          -0.42572920912550    2.69911771980068   -0.63794322158142
H           0.47947724560640    1.81478680169713   -1.49463262152146
O           0.25769107644842   -1.40736787217342   -1.75950690194322
H           0.45005799417162   -2.20126865951067   -1.17085044420863
H          -0.66807915952912   -1.13745763100559   -1.63613313273498
H           0.93273778047419   -0.39948475840307   -1.02841005463685
N           1.03613366215344   -3.22385859898156   -0.03196122825159
H           1.53128254786816   -4.06442582644804   -0.30267363532366
H           0.34229041598912   -3.47516138820354    0.66107220825409
H           1.69929554544943   -2.59948097795369    0.42823369573229
