    26
        -50.45300970  Gyration_radius:  2.43484480597 Dipole_moment: 5.195
 S          -0.82960004748971    1.04425742798839    1.61546808733066
O          -0.87360376537953    1.87560715326877    0.42185728098454
O          -1.80013286799158   -0.12931245559856    1.40595453178216
O           0.56822493015130    0.38722647624474    1.67091078774707
O          -1.10786816797079    1.70209328766821    2.83617968938261
O          -0.48958861418209   -0.78873158081871   -2.13082193590694
H          -0.48888756962776   -0.88351435797505   -3.08398740779136
O           1.17320139556497    2.85462567549363   -0.99529813895481
H           1.59357683463845    3.55693675205508   -0.49698022819360
H           0.33146007427761    2.66012886718597   -0.53889952397322
O          -2.49037081337297    0.67765163283145   -1.28671040931348
H          -3.05453570622971    0.17836821149235   -0.69030776439338
H          -1.96309229214252    1.26765758996722   -0.70792259993996
H          -1.27160892603646   -0.21591302574075   -1.90372530953589
O           1.55757618276723    0.23525996492969   -0.66308758510556
H           0.96777714021010    0.31077448421020    0.72935794381946
H           0.87833609914636   -0.14693596088261   -1.25456142025566
H           1.60225609160613    1.18672208209190   -0.90146489954147
O          -0.72929764526753   -2.08984311926023    0.27292588648190
H          -0.63696993317896   -1.82981557481707   -0.65857848331425
H           0.19766756769700   -2.21315017943616    0.61922322628452
H          -1.35437589574588   -0.96024062139754    0.96139782794353
N           1.80663525096527   -2.22939548283372    1.10997356582569
H           1.78221039609431   -1.68261441479502    1.96231776017026
H           2.31044764316247   -1.68528936006090    0.41901795461972
H           2.32056261833596   -3.08255352181053    1.28776115384699
