    26
        -50.45763560  Gyration_radius:  2.42182720081 Dipole_moment: 7.920
 S           0.94611955125325    1.48048718851833    1.18190604842195
O           1.63710728456521    2.27763683374018    2.13149386489264
O          -0.52202114208638    1.73362474662482    1.13618820241571
O           1.47568468609501    1.84740576483085   -0.24865649575650
O           1.13836513418392    0.03036315571639    1.33125667543662
O           0.72476380875972   -2.01009747572950   -1.56569660535764
H           0.99265777134071   -2.65042272653469   -2.22570733008747
O          -2.36222323644097    1.50207008868548   -0.74055888399022
H          -2.68035445614202    2.30605100420902   -1.15320880640527
H          -1.69435689226533    1.78145694807254   -0.07231989351335
O           2.77432555059022   -0.72999806539796   -0.55061839084876
H           3.00315944416623    0.09197471150928   -0.99210929348675
H           2.28219683001456   -0.45210367947008    0.25886650050123
H           1.56480614159245   -1.59354945069641   -1.22248567241617
O          -0.07231083656371    0.59345674885428   -1.93897432615938
H           0.07087737924605   -0.36661095649725   -1.87344044595103
H          -0.98659168457243    0.77677134752408   -1.66258098422179
H           0.88886327769421    1.39075689657983   -0.90615896364677
O          -0.16684072868008   -2.24052504487640    1.00002871725564
H          -1.30453461857569   -1.24243501519445    1.18698633402287
H           0.04419197873489   -2.35609659262607    0.05478287554419
H           0.49155423688035   -1.58308295634635    1.30615979971113
N          -1.93940116857212   -0.38272961679440    1.35892702835732
H          -2.44032601750982   -0.47044953008142    2.23650028019452
H          -2.58451828628985   -0.22391931787911    0.58507443656174
H          -1.28119398742002    0.48996501326267    1.38434533852492
