    26
        -50.45763560  Gyration_radius:  2.4218194733 Dipole_moment: 7.920
 S           1.44732666134646    1.23955325409798    0.92335926314258
O           1.86654601229071    1.35155953813565   -0.58439473154631
O           1.26724457633704   -0.19450362621519    1.19385427155882
O           2.44048172166141    1.87798623448158    1.71118325126840
O           0.10495561107857    1.88172642766868    1.00849916847141
O          -0.03934732233153   -2.23103530014395   -1.42763903833245
H          -0.03722255324837   -2.96260967174851   -2.04583319301640
O          -1.95640444586402    2.03928545282251   -0.63103849445945
H          -1.15833366990466    2.16865348717478   -0.06801887986932
H          -2.10116396079624    2.87044033991247   -1.08501945238925
O          -0.16157706142320    0.46051759508897   -1.96951482431254
H          -0.95158991386046    0.90525240215845   -1.61738407508324
H           1.10050818677849    1.03059716702508   -1.12787563045739
H          -0.26983719825335   -0.49548912180361   -1.82509957160687
O           2.38836447650768   -1.49716304196017   -0.76629349726532
H           0.91776824301965   -2.03881969683253   -1.21796006179040
H           2.76744141352466   -0.80052517195983   -1.30842433290506
H           2.09538766599125   -1.04199658018114    0.05934925287942
O          -0.62276868987728   -2.03750013568481    1.22815290541337
H          -1.42263760981049   -0.75573477018781    1.43504125119961
H          -0.57306130180054   -2.26895745384284    0.28193321868833
H           0.21956580744993   -1.56680635842551    1.39653262086053
N          -1.78030549850965    0.25445813468085    1.58756921999759
H          -0.91735195151441    0.91304875343821    1.45702629597687
H          -2.16952827371589    0.36575326867259    2.51755747998236
H          -2.45446089507474    0.53230885362716    0.87443760359632
