    26
        -50.45763560  Gyration_radius:  2.42183247695 Dipole_moment: 7.920
 S           2.02162027134957   -0.01515454471772    0.62993922952292
O           1.42421376380738    1.32670193605365    0.88323389759423
O           1.01485710119319   -1.02179980534250    0.99765220664225
O           2.18643942458038   -0.10924801232321   -0.92748000797152
O           3.29703653677927   -0.19768391770537    1.22544878933218
O          -1.65875357642335   -1.61377856619446   -1.28902233602074
H          -2.21366780713980   -2.14402426164547   -1.86198498064053
O          -0.28226357742345    2.84907668140312   -0.43293382622808
H           0.48859813643757    2.41047774601950   -0.00391923884993
H           0.06826215053550    3.60743501549482   -0.90186670348851
O          -1.58313767572426   -1.24524690138308    1.41087078846135
H          -1.34497839745793    0.23855464547709    1.66993307172711
H          -1.83310860569781   -1.40146070593354    0.48108588941685
H          -0.62065666379206   -1.42641001712737    1.42603815325952
O          -0.12283531154780    0.56926737242319   -1.94369022886746
H          -0.79048584803829   -0.10714342613147   -1.73577375441417
H          -0.38704370139382    1.39337368892249   -1.49989400385053
H           1.32109788664091    0.16022315102542   -1.33215791684623
O           0.74605768223945   -2.62589563790901   -1.03967941731399
H          -0.77992527935036   -2.08479317390234   -1.23614445693173
H           1.39511717546506   -2.29862516203481   -1.66779185811893
H           0.93576680207907   -2.13600955567056   -0.20378806204649
N          -0.95207828080084    1.23555763889277    1.82257051478186
H          -1.39285297569637    1.91795686037785    1.20589283260539
H           0.10087373983387    1.20315338163584    1.52981563494568
H          -1.03815298045527    1.51549558029556    2.79364580330022
