    26
        -50.45763561  Gyration_radius:  2.42184617931 Dipole_moment: 7.920
 S          -0.26483935823875   -2.04559745969041   -0.47911399866708
O           0.66109106651105   -1.57415970780443   -1.65467814129481
O          -0.39379738470270   -3.45726572602804   -0.55122630496658
O           0.35170162120964   -1.54074863381959    0.75665779338705
O          -1.54846037464077   -1.31226585365929   -0.66933625955803
O           2.00198358469336    1.61949223798177    0.62200876817076
H           2.74020337322109    2.22159418680096    0.72135558400368
O          -2.17029276495508    1.08466206134176   -1.58035312119659
H          -2.54366186511960    1.14271653806778   -2.46075009354597
H          -2.00936616662595    0.12730493225465   -1.41236415632517
O           2.79302408234934   -0.83829983047137    0.17127479529458
H           2.87747623281499   -1.07779981490347   -0.75522665686720
H           2.39678368493883    0.71362445037010    0.47873108477352
H           1.93532370340424   -1.23540695378364    0.45648076783547
O           0.23529832005683    0.53058615703510    2.38952459258291
H          -1.14497892866349    0.55704835060063    1.74179678444016
H           0.40932916032662   -0.36666112412427    2.03724000428725
H           0.86134609896016    1.09640810853269    1.90033822958268
O           0.56800885113179    1.03679867571908   -1.64904154698410
H           0.62626973070475   -0.58246415870853   -1.67759102889367
H          -0.37294708150079    1.27833086476707   -1.60239894539997
H           1.00362483951995    1.38446318414877   -0.85161807454118
N          -2.05357238617162    0.37808068722322    1.18133281284075
H          -1.83532839568700   -0.43836160721684    0.48762029810443
H          -2.30780375828787    1.17748518362962    0.60119627051239
H          -2.81641588525087    0.12043526173928    1.79814054242710
