    26
        -50.45763560  Gyration_radius:  2.42181965965 Dipole_moment: 7.920
 S          -0.21448758119792    0.52752564307123   -2.03949978490491
O          -0.25782201834864    0.64902550779312   -3.45299859383524
O           0.60024044301428   -0.58860752531294   -1.53692555189874
O           0.42330630276600    1.83482991394793   -1.45146342163075
O          -1.55751335670029    0.42222275699488   -1.40170018827463
O           1.97013233110466   -0.30321287695175    1.74462943552117
H           2.67033384490777   -0.28802486372979    2.39796544281765
O          -2.51154755606259    1.06243741922044    0.97359773714722
H          -2.25513949938874    0.98139479975027    0.02579083586106
H          -3.05635614326005    1.84793875561386    1.03717225895867
O           0.15452401331050    1.67003810339414    1.14207466760849
H          -0.77242182309661    1.42648753542742    1.30748540922859
H           0.71589695439895    0.95609604775396    1.49087754901434
H           0.31681571639033    1.79684579368366   -0.46535403843389
O           2.82160034807428    0.42586996421830   -0.62457615730904
H           2.38939713517229   -0.03653264533027    0.87855647079101
H           2.06738704046430   -0.00038430602211   -1.09804864327511
H           2.73540847649999    1.36245930587858   -0.82023391058940
O           0.67122373147441   -2.32205254763213    0.45308324170323
H           1.14662078633545   -1.75063712586763    1.08463825809603
H          -0.80911061343087   -1.96005069974087    0.39730532839996
H           0.83243094183022   -1.89468969031790   -0.41339963442346
N          -1.79689996409039   -1.58005633257380    0.17026510402819
H          -2.40163440359395   -2.31985026295894   -0.16997310065394
H          -1.66633765623018   -0.81399938528438   -0.59887911891125
H          -2.21604744034220   -1.10507327502503    0.96961041496526
