    26
        -50.45763560  Gyration_radius:  2.42182547617 Dipole_moment: 7.920
 S           1.97643704343212   -0.69721332468685    0.30244727083111
O           1.93695908095878   -0.55957320321906   -1.25996121706192
O           0.75667720562467   -1.42577384729747    0.68126069625006
O           3.19197743680429   -1.33490946801132    0.66356590804980
O           1.84622893855841    0.69278998004317    0.82447001456296
O          -2.19900680406124   -0.82604345771461   -1.22437157218517
H          -2.94702760973153   -1.06862813875290   -1.77115663859068
O           0.55308652795815    2.84230066433995    0.00621904271278
H           1.19529604377660    2.13522602279548    0.24759238239786
H           1.06530658143632    3.54030466991771   -0.40401066846088
O          -1.72610762922423   -0.97316013796311    1.45623442928434
H          -1.02173704520467    0.31316967806995    1.87422774767674
H          -2.10983886042417   -0.88668623700317    0.56368133520034
H          -0.86847519611928   -1.41910069826369    1.29796451338548
O          -0.15134947186159    0.91233679493969   -1.80612608808193
H          -0.10321905515082    1.68639121589457   -1.21925115001729
H           1.15648143481812    0.01051357907142   -1.48591370310227
H          -0.96679653692224    0.42711807761171   -1.59136343356503
O          -0.20386425763433   -2.50512505759511   -1.48862872845252
H           0.21423521189262   -2.24348311254396   -0.63338542567172
H          -1.50471909924188   -1.52826069908659   -1.37211367567674
H           0.44281158115211   -2.27022306461759   -2.15910070581193
N          -0.33020898893965    1.11525144090517    2.09813242628858
H          -0.22253518046345    1.23340629416321    3.09973283983182
H          -0.60589508058963    1.99157843396303    1.65508291833391
H           0.62528370915567    0.83779359503976    1.64477148187381
