    26
        -50.45763563  Gyration_radius:  2.42184574754 Dipole_moment: 7.920
 S           1.19723187604361   -0.68796782182705    1.60543777732450
O           0.30867313210978    0.41317516010385    2.07403248011848
O           0.40167582977169   -1.54761694722413    0.71648017765706
O           2.27313070073589    0.00434479833187    0.69732799489690
O           1.86944016628883   -1.36896916835051    2.65377349113535
O          -0.19026731099232   -0.40485716289304   -2.61102130986129
H          -0.17117540951434   -0.45919936745570   -3.56709634590391
O          -0.54216275208825    2.66510447682599    0.99392295531271
H          -0.10997087348158    1.94208979371454    1.50492068631342
H          -0.14510800796605    3.48211700844137    1.29837213757788
O          -1.81647594494886   -1.49564934200086   -0.71448555869548
H          -1.04110445654034   -1.82289841208479   -0.21332360942838
H          -2.08880439149060   -0.42374750325731    0.33541672156331
H          -1.42452672749487   -1.10564610970817   -1.51801432862448
O           0.94758182058349    1.49813884700406   -0.98707766399334
H           1.78753094547748    0.58924796018376    0.05913385335298
H           0.44309622825173    0.93918597837958   -1.60319324886362
H           0.30975544756594    2.00847899204665   -0.45922009105848
O           1.73464803711008   -1.80158230723755   -1.50941023582392
H           0.55660452328510   -0.98060533022121   -2.28288078399103
H           2.54653292737567   -1.31703128190337   -1.33923396212514
H           1.28371317334658   -1.85247981799037   -0.63262944735618
N          -2.07803382952159    0.26707626167146    1.16867157820298
H          -1.07923148892644    0.20722347554462    1.60941862536494
H          -2.78085908556748    0.01820980193861    1.85632138856065
H          -2.19189450941294    1.23385800796580    0.86435670834268
