    26
        -50.45763562  Gyration_radius:  2.42183374338 Dipole_moment: 7.920
 S           1.57048252052041    0.79337304581787    1.17819623253319
O           0.71419715229854    2.07935408945922    0.90509121002037
O           0.70600812037124   -0.08592354679276    2.01554753415800
O           1.74270603245405    0.13098259147316   -0.12322701066410
O           2.77655723271890    1.18715601620337    1.81455966111865
O          -0.95443165276308    0.31050043250485   -2.45152926948365
H          -1.36959382282390    0.51782227629754   -3.28940966775532
O          -1.89265806064776   -0.52914737428050    2.12654224353424
H          -0.95196289350091   -0.26465330313689    2.25221423526636
H          -2.37924058834493   -0.14121542070736    2.85497629985431
O          -1.60725605973216    1.23733533987160    0.05206068180698
H          -1.51159467396200    0.82693189951435   -0.82482985193687
H          -1.89445551247699    0.54640252762908    0.67337891182504
H          -0.17879208093503    1.77800668040361    0.59371727736429
O           1.10016444545341    1.86274297948082   -1.96283649915368
H           1.49513555390734    1.24161466849368   -1.30490024187308
H          -0.17652774064355    0.93025994672803   -2.36351695195081
H           0.90251840446571    2.65767124089149   -1.46089886729674
O           0.63252535832997   -1.74241633764256   -1.61593637435657
H           1.28628080330237   -1.11111935315273   -1.25056135636261
H           0.17842530740007   -2.13929613335768   -0.21528487249296
H          -0.02742621099056   -1.16804344405699   -2.04714222744017
N          -0.00696461200530   -2.24487264951535    0.84591941307528
H           0.42530523810744   -1.36300079431982    1.32643859307030
H           0.42375568720575   -3.08874718255277    1.20801415560205
H          -1.00315797770710   -2.22171819525125    1.06341673153684
