    26
        -50.45763560  Gyration_radius:  2.42183181614 Dipole_moment: 7.920
 S           0.38017840342007   -2.05980998042488    0.31087128820017
O          -1.08982176790209   -1.82200350952519    0.24648767527086
O           0.73247550597661   -3.36457188167579    0.74457875269682
O           0.89604553294221   -1.87257401035427   -1.15895984194926
O           0.96938040789406   -0.96453427220061    1.09529540329025
O           1.39787045690796    2.19075191961478   -0.51347727052158
H           1.89166179311581    2.95128878928156   -0.82188452265744
O          -2.62646021838051   -0.23485450627759   -1.19637342771227
H          -3.12810619933729   -0.63020031629423   -1.91046082665976
H          -2.12401782186410   -0.96931365166065   -0.77357172492479
O          -0.08233153029876    0.40414350409442   -1.98672264456468
H           0.32554954776809    1.13989673612595   -1.49803309043583
H           0.52111540250970   -1.01762760130031   -1.49614072220884
H          -1.02996979122974    0.39186177195469   -1.76824564378557
O           2.90219406814628    0.05245476813571   -0.32808899914256
H           2.28682480474269   -0.40553914479099    0.29340679040865
H           2.91955608690531   -0.50493387468889   -1.11034379518866
H           2.05150644462354    1.43839671697430   -0.45260856649000
O           0.40504206505558    1.47803582445325    1.92313671671661
H           0.81889339865499    0.59308725117054    1.85222952278134
H           0.71650112796122    1.94351303533833    1.12456696044328
H          -0.98330582218015    0.88676507541894    1.70333952188770
N          -1.85073698067248    0.27136394867726    1.50200631376063
H          -2.44913857618706    0.67872509011189    0.78352720581638
H          -2.37471904119390    0.09248535689494    2.35183109187343
H          -1.47618728737771   -0.66680705905284    1.08363385309553
