    26
        -50.45011625  Gyration_radius:  2.45257701953 Dipole_moment: 5.255
 S           2.01856693141241   -0.33442641227738    0.53802698137594
O           1.93923109791064   -0.40958769326200   -0.99769561330726
O           1.31760176753402    0.85076735172644    0.98431678015682
O           1.19616640147637   -1.57900729586616    0.98837709814085
O           3.36090741739634   -0.49289428908170    0.95517130996658
O          -1.77085533752589   -1.38205368591572   -1.17872996286390
H          -2.51972054817842   -1.80191692669667   -1.60385774457463
O          -0.90466981694581    1.43472400895274    2.30854351007472
H          -0.04004723999803    1.31695746173237    1.86053402108100
H          -0.71589807230311    1.48565756470344    3.24702773190948
O          -0.11845312842128    0.68494596979901   -1.91037599733837
H          -0.26208662116129    1.53198950372370   -1.40263411080578
H           1.09972066950246    0.08286984711547   -1.37355125415690
H          -0.85116994559202    0.08622782215552   -1.68651922476872
O           0.45991376988977   -2.80168264939834   -1.37932634007359
H          -0.99892261366179   -1.99281192892216   -1.30057239157633
H           1.07205334342042   -2.32567079084868   -1.94967489235978
H           0.80810110559345   -2.68457900961467   -0.48106412767983
O          -1.23029569867079   -1.08807707102534    1.47390470548488
H          -1.29980878102383   -0.15953579003924    1.78432020996383
H          -1.61440203069130   -1.12692710921498    0.57901014543766
H           0.22048225636453   -1.35749445451123    1.24077946000475
N          -0.33530766745141    2.84873216261331   -0.38355378321957
H          -0.23978358147079    3.79925207116752   -0.71612535944478
H           0.50843843835956    2.59782459554446    0.12310625626722
H          -1.09976213576419    2.81671675744128    0.28056259230323
