    26
        -50.45011625  Gyration_radius:  2.45258932042 Dipole_moment: 5.255
 S           1.43489802919107    1.38632682504983    0.70372355307106
O           2.20048260060765    0.28228642297731   -0.04825013133535
O           0.49362064151375    0.76619463651558    1.61183555878202
O           2.35100381304208    2.31556952457849    1.24986355331868
O           0.62371800688148    2.07977001591865   -0.43170845247431
O          -0.71794740623609   -0.79166043999393   -2.30069795147076
H          -1.07690955314537   -1.16512406844937   -3.10660991770694
O          -2.13613926134752    0.50998737779651    1.83939865795329
H          -1.15959152111654    0.59722938170371    1.86986173495410
H          -2.48682239984079    1.23802153774867    2.35512425397845
O          -1.71774953547804    1.18516763707835   -0.71721778154999
H          -2.03212836554775    0.86315572791240    0.15503976805930
H          -0.35082429534819    1.74800057455704   -0.50210308814133
H          -1.55535629230798    0.40365002173974   -1.27645201653936
O           1.39604057812431    0.75078903473553   -2.72965287518391
H           2.16960555577516    0.31596011040229   -2.35664296840356
H           0.05326401386740   -0.22914663687406   -2.57006461789657
H           1.19415952440726    1.47651093028988   -2.11774950333481
O           0.86076041986441   -1.81680393691650   -0.30190568302138
H           1.65132682556865   -0.60226903477158   -0.11544526535983
H           0.38608551624173   -1.97988037439402    0.56065538329127
H           0.18419196074065   -1.61302882446244   -0.96985085570679
N          -0.34942891876513   -2.00636928014393    2.05596497538663
H          -1.34366701900287   -1.81293428312121    2.03228387450045
H           0.10967052791940   -1.16025766716567    2.37981175632135
H          -0.18226344560884   -2.74114521270997    2.73078802850872
