    26
        -50.45763562  Gyration_radius:  2.42183005346 Dipole_moment: 7.920
 S           1.17428265624462   -0.47207143966899    1.69769661969611
O           0.39322247391002   -1.44131091224392    0.91497566817300
O           1.83209560849428   -1.01073976265719    2.83424965087448
O           2.26239861167961    0.10179363800402    0.72391325074555
O           0.27718299208441    0.67699457331991    2.00831494884663
O          -0.15077721391715   -0.73731798471864   -2.53986850001883
H          -0.11753238257629   -0.91401185066804   -3.48064250920537
O          -0.56098235810332    2.76866358579895    0.63563410744982
H          -0.13528896388097    2.11876615618612    1.24150404229754
H          -0.16975823061274    3.61940365289206    0.83825742429987
O           1.75972185162034   -1.97442873738860   -1.24014997573274
H           1.29581782589429   -1.91393533087746   -0.37076757660872
H           0.59201894471749   -1.26359992115853   -2.12967799172184
H           2.56811593165837   -1.46905596925221   -1.12182448184954
O           0.95974235779775    1.36243350177816   -1.15748844118126
H           1.78545333459718    0.59817410962967    0.00884479468916
H           0.46540174853612    0.72726260163225   -1.70402402683958
H           0.31333902449238    1.93403431938539   -0.70877772459714
O          -1.80337179936785   -1.58130639449454   -0.54292631659008
H          -1.03511719836469   -1.83889573265951    0.00740927226690
H          -2.09278590259098   -0.38437174855494    0.35659968567523
H          -1.39999205167169   -1.29630353460952   -1.38401660638604
N          -2.09550078450166    0.40770519791027    1.09435348536252
H          -2.80816047540606    0.24676302699827    1.79789664697021
H          -2.20620682072558    1.32703399119400    0.66677889797025
H          -1.10331917000669    0.40832096422233    1.55373564541234
