    26
        -50.45763560  Gyration_radius:  2.42182542751 Dipole_moment: 7.920
 S          -1.63428973970452   -0.69411864590780    1.15377835668377
O          -0.55111983770284   -0.20749838340517    2.05463314995581
O          -2.67252998340999   -1.38917499435107    1.82725139932670
O          -2.24552832419882    0.59662493600194    0.50417769250359
O          -0.99506579147637   -1.44072538930059    0.06012033301842
O           0.54529677956051    0.43314123221406   -2.55578902871744
H           0.69205431513871    0.70536575236705   -3.46227465871294
O           1.15191963437238    1.80509938090386    1.94911898564078
H           0.98111891532603    2.56220862622962    2.51079786169451
H           0.42599654186785    1.16265132449788    2.12503799065990
O          -0.22404032775091    1.97379559731612   -0.41387709393565
H           0.18673774531722    1.50543915485099   -1.16114922888914
H          -1.48917911841979    1.14088400617709    0.16225533683927
H           0.42928751779282    2.01584509314185    0.30535704975360
O          -1.89283709377071   -0.45169465568225   -2.17860819640198
H          -0.39248122327924    0.09285899346730   -2.51392268480898
H          -1.65557956517231   -0.94637515583911   -1.35781625938696
H          -2.52821574719655    0.20900382424082   -1.89107474545243
O           1.35622692416943   -1.72789893627490   -1.10553241185230
H           0.43715716991684   -1.89781814062819   -0.81247614249743
H           1.26620550079058   -0.98255902115507   -1.72822231509845
H           1.74669623134286   -1.23426781312218    0.28346435944480
N           1.79537275962216   -0.90027163017416    1.31194359377570
H           0.76372847757142   -0.73628699137395    1.63488423542448
H           2.26220659569801    0.00241836879728    1.39830516798395
H           2.24086164359900   -1.59664654298748    1.89961724304889
