    26
        -50.47250047  Gyration_radius:  2.40918918036 Dipole_moment: 3.091
 S          -0.41826121642338   -0.73198279074163   -1.13675677276427
O           0.74602275099151   -0.89108036974733   -0.26377718869617
O          -0.19745286261684    0.41148405736864   -2.02897985542339
O          -0.53451587549801   -2.01502091037603   -2.01042477538898
O          -1.64945886833806   -0.61424070676080   -0.38949122052986
O          -1.57292942604195    1.43823246728565    1.36202563879383
H          -0.60852619543670    2.15857710635064    0.40468155705843
H          -1.92943241688275    0.76719796640273    0.75259036447871
O          -1.82900152033290   -2.16268046595916    1.82561607817937
H          -1.80890779846985   -1.66418810938302    0.98782659748701
H          -2.54914183723855   -2.78925870426185    1.74712535422755
O           2.24074695077357    1.10486702817663    0.69475376537906
H           1.85798460802578    0.30270098431951    0.28220268982207
H           2.12944951403528    0.96468869703999    1.64042966467414
O           1.80601215958445   -1.16185729721388   -2.86728165151592
H           2.24909871311925   -1.22696156383955   -2.01569432060085
H           0.30525356706269   -2.01134721324522   -2.51204465797470
H           1.26659794119678   -0.35535750773542   -2.82382456227295
O           0.16687428343782   -0.33356717517327    2.33362602912868
H           0.40364596836601   -0.64295918926924    1.43888472563509
H          -0.97037296130708    0.91251501539888    1.94073741676056
H          -0.44615953737206   -1.01100977712481    2.64757790480211
N           0.15158596244550    2.38223022211925   -0.33031824220594
H           0.13237439398681    3.34885451464742   -0.63564043581229
H          -0.02074125975653    1.71348851953349   -1.13025889635368
H           1.07925496270209    2.10667518218413    0.08641480310880
