    26
        -50.45300982  Gyration_radius:  2.43484774327 Dipole_moment: 5.195
 S           1.83982326995272    0.36228919672563   -0.93403071719395
O           1.53685820285769   -0.93644433278176   -0.15285262734655
O           3.14395692939348    0.31032329387006   -1.47888696006685
O           0.75982128900862    0.55846712690767   -1.88948503992946
O           1.74322395094030    1.47801394125978    0.11899762783860
O          -2.03639923897970    0.99829209152768    0.50884902379811
H          -2.97169973801645    1.20491422482285    0.50236301542988
O          -0.97178680811242   -1.25033592431305   -2.83021950723725
H          -0.51597648060827   -1.83795995327263   -3.43455445196567
H          -0.36450314480413   -0.50341596425484   -2.66285752019645
O           0.24167366378879    0.88246271255154    2.03333057804688
H           0.36910405688349   -0.07651349490150    2.27519994765798
H           1.14348296317293    1.22618735195389    0.93367384233479
H          -0.66186227930585    0.95471120223552    1.68358883541913
O          -0.65918834289484    2.61162574597869   -1.02956668149846
H          -0.00093157803484    3.09267404569763   -0.52109005261111
H          -0.15832196571534    1.91585608407326   -1.50513093379647
H          -1.59834817518053    1.64981553078376   -0.10336732065726
O          -0.95906841764428   -1.40583606985878   -0.16668387209528
H          -1.42217134051882   -0.58254980312094    0.08792757232454
H          -1.11786028532352   -1.50460935902721   -1.13058561941525
H           0.52870708744986   -1.12469513989024   -0.14371591659943
N           0.49868507164681   -1.74035408854741    2.48739895912069
H           0.48568163132565   -2.18327648803719    3.39690384036690
H           1.38101026061076   -1.95178028252114    2.03706414025922
H          -0.23391057189355   -2.14786162786353    1.91772984801227
