    26
        -50.45011621  Gyration_radius:  2.45257917182 Dipole_moment: 5.255
 S           1.77586419821661    1.06118425599200    0.44292878234195
O           1.86048129612242   -0.29107475086286    1.17411587173097
O           1.83344192749126    0.64705921862583   -1.05816156819944
O           0.47718181512286    1.64829238047008    0.69584714877467
O           2.91454887277830    1.84223508950177    0.75013034270849
O          -0.50859928991316   -2.18757014838436   -1.17944138553931
H          -0.82707022125421   -2.98583356698607   -1.60272099849588
O          -1.73541452196662    2.18001355880416   -0.66603365443161
H          -0.94455380780117    2.07296881085111   -0.09574719262367
H          -1.67803213526145    3.06000120976497   -1.04197499018077
O          -0.43024557980208    0.36131058713253   -2.13432019208200
H           0.90490922696964    0.58995650912043   -1.50467848755393
H          -0.65385262307794   -0.54872628317110   -1.86650186983905
H          -1.06202716940811    0.96398833889535   -1.68597361791821
O           2.13538271534836   -2.10010287649734   -0.99589648389266
H           2.28302115996784   -1.16935324970356   -1.22775076434572
H           2.37780816381877   -2.16876293707528   -0.06687215280075
H           0.48132793058330   -2.24886987710076   -1.17111035232257
O          -0.37610038931523   -1.38254680342027    1.44223251263661
H           0.92083344114054   -0.72125541957071    1.31729998843752
H          -1.03158844022942   -0.67305919154599    1.69300150962186
H          -0.61807502980207   -1.69871570308217    0.55514602754656
N          -1.94583764584911    0.67872134583078    2.03141631677666
H          -1.15602383561042    1.31573015086779    1.98759921520490
H          -2.41509603282247    0.80927921323742    2.91793600642115
H          -2.58228403544630    0.94513015830655    1.28952999802359
