    26
        -50.47250019  Gyration_radius:  2.40908258171 Dipole_moment: 3.074
 S           0.10006973657459    0.87867442781611   -1.10393275136819
O           0.65232943587579    2.12640316540086   -1.85307394903784
O          -1.17832768294309    1.25196293454984   -0.54312058192326
O          -0.01508774942484   -0.22110325587553   -2.06803651053012
O           1.07156584403516    0.51238825864484   -0.07203222509338
O           1.46213812523684   -1.95517517616389    0.87437879353421
H           1.50620367749845   -1.05232467233817    0.49613870788334
H           1.26493346883110   -1.81574968170318    1.80604654867038
O          -2.21695323506513   -0.71001201345041    0.99233678070272
H          -1.48230718614555   -1.72840347597467    0.10492586454310
H          -2.17032326420004    0.06977477993453    0.41046621832328
O          -1.07382020936912    2.65773885396717    1.76937419058978
H          -1.12324165445136    2.22433616966869    0.89729315670079
H          -1.43687398276517    3.53636014351090    1.65294790520754
O          -0.09433445105641    0.15132585988346    2.35747304008412
H           0.38789102919974    0.36717258559163    1.53697358310466
H          -0.42579968068319    1.00955550307455    2.65217836075241
H          -1.55653892920815   -0.50040431292788    1.69535053537795
O           2.55793792158816    0.41613025157248   -2.47275227347638
H           1.48916531214314    1.79516857336265   -2.23628566043602
H           2.84824516899810    0.26032106361068   -1.56877901721525
H           1.74023950637940   -0.09694238449835   -2.58022875629726
N          -0.76825336948895   -2.21938308912314   -0.54106817219806
H          -1.12474066121813   -3.08046592593238   -0.94032192646184
H           0.11103020732681   -2.36620566909851    0.02052326445611
H          -0.52514739760557   -1.51114293348681   -1.28677512588830
