    26
        -50.45011623  Gyration_radius:  2.4526093248 Dipole_moment: 5.255
 S           2.09724781996189    0.24785529625921    0.12770049755315
O           1.24642461450803    0.52054922981587    1.26654471008568
O           1.83838540415163   -1.19198366556686   -0.35215308950709
O           1.59077374833252    1.10773400343226   -1.06907541462618
O           3.48727862605074    0.45481555410263    0.28896700896239
O          -1.61158162789292   -0.50557264905872   -1.89290942257699
H          -2.31504444249074   -0.68716849888528   -2.51738026396017
O          -0.85861940053268    2.03316247917545    1.82662717271731
H          -0.05181796364747    1.48361670294871    1.73052139170775
H          -0.56456782131089    2.88780569849676    2.14619052002846
O          -0.80234623273336    1.87393906857618   -0.84522723689927
H           0.63125904285285    1.46503880816582   -0.94120124137028
H          -1.28320750077688    1.09164125730718   -1.17182071241433
H          -1.00700622467260    1.96797120540518    0.11009478173873
O           0.80430069338158   -0.75076549756219   -2.95851958923816
H           1.23568279683726    0.02267423992334   -2.56155751493486
H           1.23673127157894   -1.51209225765164   -2.55853402748532
H          -0.75959743889336   -0.61307965850270   -2.38922178581367
O          -0.48952467178124   -1.96778036462296    0.14216868227156
H          -1.06020499267958   -1.48939468722494   -0.48305683870985
H           0.87944109806980   -1.52246321616537   -0.10768485443040
H          -0.72577900427384   -1.65337704099518    1.05936500879936
N          -0.91714568245845   -0.97029997020277    2.56752603599492
H           0.01644743899753   -0.57085468762538    2.58746690239390
H          -1.04693407597203   -1.52551352766912    3.40304185561428
H          -1.57059548460524   -0.19645782187477    2.59212741409883
