    26
        -50.46954177  Gyration_radius:  2.39861849453 Dipole_moment: 4.981
 S           0.17072026777921    1.49518745732995   -0.51518398664951
O          -0.29052096060190    0.43099346328415   -1.43143543897838
O          -0.48656101384541    2.74439696719972   -0.78374186745402
O           0.00872424357164    1.06253634508621    0.87479234034614
O           1.70197520036417    1.63250474137500   -0.78241938528008
O           1.61241585677900   -2.27682191474045    0.38001466405811
H           2.08652499280131   -3.10932215446282    0.37994667191771
O          -0.80830906240546   -1.38852631877552    1.47710480538109
H          -0.48340887969578   -0.46422708680928    1.43284404388145
H          -0.06604084970382   -1.91403217950381    1.13977385042696
O          -2.63800594471554    2.08460863225616    0.59188045491547
H          -2.73863044827747    0.53084894449815    0.09927568254696
H          -2.25431985513957    2.09832879752523    1.47292594078771
H          -1.93443337143704    2.46450352363894    0.01585585296927
O           2.48680716505830    0.19898944253806    1.23351051029243
H           1.64357636365862    0.53421029439946    1.57780149603937
H           2.32140820320252   -0.74163235035975    1.03695131695576
H           2.15658979545780    1.11907368608852   -0.05812295790687
O           1.74729732467683   -1.11821546930672   -1.98547261459059
H           2.47609101988775   -0.50093139161895   -2.08419722401666
H           1.64831931706830   -1.93129973133229   -0.54838257053815
H           0.94485104311469   -0.55536253230177   -1.89729000129501
N          -2.45222016269337   -0.39980385050381   -0.31376439728962
H          -1.63999953521246   -0.13978642678269   -0.95317001699882
H          -3.21028124458566   -0.86506154127726   -0.79958603385486
H          -2.00256946512232   -0.99115933746363    0.44008887433185
