    26
        -50.46954175  Gyration_radius:  2.39869831422 Dipole_moment: 4.981
 S          -0.72284393566669   -0.85734459557437    1.12952455515464
O          -0.01607800889893   -1.52477660313776    0.01598563742708
O          -2.22650374441759   -0.84393253840219    0.71263212209818
O          -0.56368920626407   -1.57726847647295    2.36284852504575
O          -0.28754309907558    0.53734345088555    1.23295641544754
O          -0.68849517649421    1.29620303622675   -2.40412950731582
H          -0.84863044938792    1.61625711311305   -3.29282619388492
O           1.37579089775810    1.60703458062012   -0.53538161525737
H           0.75074153195637    1.37956823994368    0.18530415731224
H           0.82949580879486    1.57944857013565   -1.33642159180474
O          -2.27233414919993    1.59913810518436   -0.16264812969423
H          -1.81433899154388    1.63703169011074   -1.02261923957869
H          -2.40485746876391    0.06718031201584    0.34837963200402
H          -1.56598272788387    1.66578240900080    0.49955354552809
O           1.80732210419589   -0.52846180861927    2.84694785122825
H           2.38619030084420   -0.59255042415688    1.32119808139390
H           1.53056005594019    0.37394278198126    3.02771636663888
H           0.96328668083694   -1.03459054561199    2.79562309577492
O          -1.43986980613023   -1.22028074332032   -2.16105805912864
H          -2.34244657743411   -1.33780013945930   -1.85531690373980
H          -0.92967607248627    0.33480430795980   -2.40212501984589
H          -0.87562159837721   -1.44909815994845   -1.38788239309609
N           2.39733151703506   -0.67329241327702    0.26662019107326
H           3.21807601767951   -1.15436351204206   -0.08278888466938
H           2.25299529622116    0.28595155304682   -0.15706751264924
H           1.48712078076911   -1.18592618024419    0.05497488447335
