    26
        -50.46954182  Gyration_radius:  2.3987779608 Dipole_moment: 4.983
 S          -0.28998176398123    1.40573436889382   -0.68781738527560
O          -0.13567757210857    1.12098075452665   -2.21436122711910
O           0.95563650909853    0.98936374212769   -0.03946543767444
O          -0.58289705243695    2.79656767428557   -0.47716121783773
O          -1.40359523065071    0.54239945070322   -0.24129973495675
O           0.53929427403824   -2.64726525904919   -0.79756987088538
H           0.57257145339328   -3.57825100901220   -1.02118593658175
O           1.05932191842537   -1.15677601724225    1.51704103381062
H           1.20042855986811   -0.35810839844313    0.96570618781753
H           0.87213331956337   -1.85653502521002    0.87181072095320
O           1.84878873019799   -0.53944568399795   -2.00912268336318
H           1.99607199494119    0.00556894206524   -1.21964628481527
H           1.51722390700103   -1.39054282338586   -1.66794637670628
H           0.62177115610487    0.47810358854079   -2.30098607488173
O          -1.57255258598906   -1.49488307251813   -1.87838003980151
H          -1.41280302623895   -1.10211570435529   -2.73982793942921
H          -0.30577929219796   -2.29532162206740   -1.17766602118065
H          -1.63543385469394   -0.73390316119724   -1.25747289923919
O           0.10787560990751    2.71489931676617    2.06697193232923
H           1.05484232198290    2.59496236190927    1.95495112339992
H          -0.22140479699649    2.90290623292773    1.15742225269740
H          -0.55701317702301    1.26641681468564    2.42382980984113
N          -0.97931214748716    0.30687170042855    2.28400433713203
H          -1.35512001467531    0.35227238658781    1.28763268787095
H          -1.69159290246009    0.08647472337963    2.97047113893319
H          -0.20279631757546   -0.41037429133204    2.23006791499110
