    26
        -50.46954176  Gyration_radius:  2.39869904348 Dipole_moment: 4.983
 S          -0.43223946525303   -1.52788299979171   -0.10296256800787
O           0.69843665708800   -1.12207709250907    0.75823107838826
O          -0.73092839003292   -0.46736772670333   -1.06805426372687
O          -0.18630791273329   -2.79476356639567   -0.73484793275025
O          -1.65854917580150   -1.64156664068394    0.85546606346250
O          -0.75308309632516    2.29247887079738    1.45138327703053
H          -0.87030664482006    3.05028092014963    2.02558391944292
O           0.53141341801772    1.86493072249906   -1.00118169829441
H          -0.03518267332552    1.07956253429599   -1.15602762117322
H           0.22240149197367    2.21212708891423   -0.14974635915369
O          -0.26742196047961    0.11360414261750    2.85576351218549
H           0.18301044012827   -0.39821112268307    2.14606023909898
H          -0.51128839077674    1.52944951527553    2.03609993546502
H          -1.04909648628068   -0.39865013326364    3.07590132809567
O           1.27791527026811   -1.72884553710753   -2.65190445353108
H           0.79629943746539   -2.28165266255913   -1.99342679257451
H           0.58191462348221   -1.26104414569860   -3.12132289507719
H           2.09053710092799   -0.65432850894342   -1.72913799022542
O          -2.68165293183182    0.68025474276465    0.30799382257602
H          -2.17227659949752   -0.79338242312772    0.74948128104294
H          -2.14375735747058    1.37262954656518    0.73454843975492
H          -2.22666682051383    0.49036921499484   -0.52798837866956
N           2.33465636859364   -0.03920937976546   -0.90401166219579
H           1.82949143788872   -0.51227566169602   -0.09348071591267
H           1.83868675611567    0.89039815021311   -1.00459890857209
H           3.33399491322154    0.04517217186341   -0.75782063669257
