    26
        -50.46160209  Gyration_radius:  2.61734831279 Dipole_moment: 3.622
 S          -0.59656530500146    0.34128729011344   -0.11859131592735
O          -1.95445979077604   -0.16687405356255   -0.12349256690254
O           0.17055169303806   -0.31189061859265   -1.20096685692027
O          -0.62760876559772    1.85570585847705   -0.43913451448590
O           0.06461944307729    0.15454914125078    1.16608594854859
O           3.24256102896033    2.23027853705717   -0.67615484462083
H           3.74673455649802    2.98559482611624   -0.98242380473200
O          -2.88795198180659   -1.62600663121224    1.86402712601100
H          -3.25944557848669   -1.05294768316434    2.53596942838244
H          -2.63365160956248   -1.03473703171394    1.11895826993353
O          -0.33226052889461   -2.37681919821455    1.78592044809140
H          -0.02103197720928   -1.44635442404696    1.69715277776923
H          -1.26527573972681   -2.28166194000050    2.07569272850973
H          -0.54979185700669   -2.68523915159770    0.34734575079367
O           1.26327875031780    2.54494315006788    1.09144186171058
H           1.12426405735068    1.67719460346839    1.50257227445473
H           2.07751214597694    2.46032699125735    0.54218295824366
H           0.09613359370059    2.27179004889199    0.14863680400426
O           1.37662642296238    1.66441213958051   -2.51647890102306
H           0.99971652952864    0.84891990914363   -2.12872898932940
H           0.68530719912911    2.32411429643830   -2.41336762112555
H           2.65633906166956    1.96633432432794   -1.42203060249968
N          -0.78923007114021   -2.64518040329215   -0.72843513373081
H          -0.46982521282792   -3.45904501737871   -1.24410373387873
H          -0.32236928433898   -1.73221519712227   -1.06115531173270
H          -1.79417676980703   -2.50647976631152   -0.82092217953465
