    26
        -50.46160196  Gyration_radius:  2.61735812758 Dipole_moment: 3.637
 S          -0.47264130070456    0.01643025649095   -0.51484028768442
O          -1.83240051630442    0.51904024491145   -0.48912172647951
O          -0.36255765359392   -1.13387135798057    0.40789694168651
O          -0.16123076386047   -0.51450497340000   -1.93533817853116
O           0.50721210022512    1.04117775024826   -0.17970360663931
O           3.31948848765571   -1.98235829559733   -0.99939024175223
H           3.88678976405899   -2.54680108445215   -1.52670172663264
O          -2.41138750282183    2.89442539149882    0.49601219203207
H          -2.26402498545708    2.02730767773576    0.05331224150991
H          -2.35787386823861    3.55341064575232   -0.19751367334163
O          -0.37529289287082    2.14571264211630    2.04543108083018
H          -1.16382982681884    0.91655738565967    2.33131952930861
H           0.14396867923756    1.81790081577758    1.27505570462139
H          -1.07684114116132    2.69538372918005    1.63482126545409
O           2.25105736969297    0.23513369414251   -2.03998588463946
H           0.80750777905638   -0.24868828361483   -2.11870301909272
H           2.01253851478419    0.79861280305933   -1.28695500067048
H           2.76531034678813   -0.51774244635191   -1.66527001914108
O           0.85907163171135   -3.04729570524341   -0.98383737532033
H           0.47337537769175   -2.84391134966161   -1.84039531956388
H           2.46358161073633   -2.45969799472273   -0.90379117042187
H           0.41115872620926   -2.44013906356965   -0.36084007744886
N          -1.74222057129163   -0.01955107311404    2.26315735976979
H          -1.17329403196151   -0.62292906414895    1.57415226539094
H          -2.62561569733486    0.19119043810179    1.80169131292003
H          -1.88184963542350   -0.47479278280018    3.15953740382798
