    26
        -50.46160206  Gyration_radius:  2.61746184984 Dipole_moment: 3.635
 S           0.41351096179374   -0.54910642135125    0.13104157662989
O          -0.27554828257733   -0.23943303749390   -1.11466366017556
O           1.84744893059219   -0.67354953534847   -0.04373271176027
O           0.13656075868521    0.48394812562354    1.15230714288558
O          -0.14242786632389   -1.88537149266644    0.68045755673020
O          -3.75845882569774   -0.55223558210438    1.23239838339379
H          -4.48534820220144   -0.97960966822191    1.68788088975796
O           3.03441733910436    0.03670857417373   -2.28785020110587
H           3.06296279654907   -0.70972123665611   -2.88787670163490
H           2.65567781171723   -0.30979408183367   -1.44762570808507
O          -2.32568194171318   -1.87556995215969   -0.59430581376477
H          -2.95682007077154   -1.39321341174117   -0.01056778808412
H          -1.89631244756383   -1.19981047163131   -1.14243799028178
H          -1.04077225832862   -2.01835290945212    0.21347185712605
O           1.03859453507753    1.79870364397156   -2.14875937605079
H           1.55514270781444    2.13968526062869   -0.79534938097669
H           1.80333646549241    1.28629264032967   -2.48866198076581
H           0.38866701536457    1.10383751865612   -1.89310749963840
O          -1.60779410156689   -0.62463582547639    2.83163944558510
H          -3.02565788372991   -0.47813621843321    1.88593777064599
H          -1.26935600804043   -1.52312197607002    2.78836007643984
H          -0.97854631342022   -0.09775145123081    2.29888502025995
N           1.89998300632389    2.11664909930913    0.25153511931276
H           2.01822946965940    3.03893466837331    0.65852093464363
H           2.76044758058733    1.57246100344939    0.28584362708027
H           1.14774482317999    1.53219272731822    0.75665942181773
