    26
        -50.46160227  Gyration_radius:  2.61742325482 Dipole_moment: 3.632
 S           0.19692846374822   -0.54906482278259    0.38301532595584
O          -0.58265503270080   -0.56615615448492   -0.84759909415955
O          -0.68106625703053   -1.11009934591292    1.52814927328747
O           1.40550215181243   -1.34417122434093    0.28592821628530
O           0.55552374649653    0.83642187128378    0.75544620671650
O          -3.32191228189487    1.74584407596557    1.36713874260702
H          -4.03613787613529    1.92746880491659    1.97981303303610
O           2.24031580721506   -2.31264948231290   -2.01959281695857
H           1.95708477054614   -2.04201123044923   -1.11615213019121
H           1.84884859065134   -3.17450917862658   -2.16810807074865
O           1.13751341801102   -0.00329882969368   -2.76446389078044
H           2.02672390285676    0.64576797094583   -1.76357136492263
H           1.55995641710182   -0.88815625924097   -2.80732435312058
H           0.34765749606446   -0.15032803772413   -2.19436254503119
O          -2.92629499544480   -0.72563761975283    0.43104395404163
H          -1.64329035362158   -1.03351283149255    1.19506827251497
H          -3.18647814250957    0.18600939796039    0.70124120412281
H          -2.40823200953764   -0.62716225106970   -0.38340319896638
O          -1.05771556714830    1.47151402859714    2.77660197295545
H          -1.09696003812220    0.60148441952811    3.18314952107242
H          -0.41212064788889    1.37451965670927    2.04774005293926
H          -2.48970482094666    1.77834173700152    1.89249734034520
N           2.55809877064137    0.94845115560563   -0.84611059494582
H           3.09716045895167    1.80172009714770   -0.95415165772280
H           3.13902369722694    0.16654964026504   -0.54794978139891
H           1.77223034166971    1.04266439194605   -0.11404360693075
