    26
        -50.46160208  Gyration_radius:  2.6175061779 Dipole_moment: 3.638
 S           0.32689158982928    0.31885729900643    0.52839437705275
O           0.47420883186870    0.58931616169620   -0.89556751672827
O          -0.65294028921316   -0.76513808169042    0.75594655522430
O           1.68604418775100   -0.18031068638973    1.07641613180133
O          -0.07870166011926    1.49234956355299    1.27720901674726
O           1.76338056387100   -3.41478236911034   -1.08728735804335
H           2.36753214664016   -4.15616245558999   -1.02542318613961
O          -0.86839330074748    3.69927092369475    0.07092715138083
H          -0.52387276058741    2.93624910449111    0.58907758333235
H          -0.11316537888854    4.26611576280561   -0.09167018614132
O          -1.74788301039912    1.81928129502822   -1.60204549306507
H          -0.90070873538880    1.31908115816657   -1.54981340527895
H          -2.43987920150511    1.22328714646809   -0.42737153055167
H          -1.52126050497164    2.69770082300175   -1.22786137881691
O           2.67948063667862   -0.90468312519064   -1.13283152955253
H           2.21220629084752   -0.48903241987515    0.25757969550717
H           2.39840433674756   -1.84338269997065   -1.23998597575059
H           1.97256392622148   -0.36634139471525   -1.52253911529272
O           0.79463196155352   -2.91644173818427    1.36244292695229
H           1.49441603329161   -2.46485996619836    1.84212257025726
H           0.14615123473438   -2.21436964332782    1.15278023231835
H           1.32801734871214   -3.33660683149147   -0.20752405647333
N          -2.69270262184600    0.77916890611347    0.54957659103552
H          -1.94199457995682    0.01771682868871    0.68707254562361
H          -3.63735219944523    0.41041129564549    0.59395384571831
H          -2.52507484570095    1.48330516336031    1.26642151894248
