    26
        -50.46160206  Gyration_radius:  2.61707129992 Dipole_moment: 3.630
 S           0.50067991529427   -0.26072096837754   -0.41493628851882
O           0.34044571234449   -0.48901680042017    1.01504790727325
O           1.79512397769348    0.30225981533603   -0.74583618941625
O           0.34023219593490   -1.61438164426495   -1.14891518398098
O          -0.56219124527674    0.63289186127133   -0.92355883065885
O          -3.38037115487080   -2.11758988636519   -0.11082313758042
H          -4.00139037170963   -2.77712100031846   -0.42358309085164
O           3.43223357957052    1.18980017708137    1.12055233329317
H           2.90490714665307    0.81989469487133    0.37589007471937
H           3.99618688091985    0.47554885981527    1.42021417213393
O          -2.25334866036638   -0.94536923469611   -2.24263175149934
H          -1.60483353419845   -1.56770119556794   -2.58302580582870
H          -3.08064781236230   -1.61884688530231   -0.90520519877154
H          -1.72277929158791   -0.25611391226278   -1.79446217632167
O          -0.92559828102537   -2.82070489583996    0.67742233121974
H          -1.87528342816442   -2.62652973612202    0.49815005091956
H          -0.15144509242187   -2.22216309060811   -0.49214013344318
H          -0.60671786066111   -2.10190402573133    1.24579796907351
O           1.05017097183375    1.77446838981235    2.16496013945663
H           0.76794294513886    2.49650986781694    0.89485303074149
H           0.68374003289729    0.89252207545653    1.92310202400388
H           2.01980145275819    1.65527329501644    2.07188066813218
N           0.61673178111368    2.78089104585962   -0.15956604451502
H           0.01878064887979    1.97737716903705   -0.55882019577493
H           1.51896230271503    2.73143639625692   -0.62993347317939
H           0.17866719888891    3.68928960825392   -0.27443319062163
