    26
        -50.46160230  Gyration_radius:  2.61731615419 Dipole_moment: 3.625
 S           0.20437365832864    0.47798735505271   -0.46819152978618
O           0.47942353374712    0.46830190971752    0.96250285142801
O          -0.60854520989168   -0.69624999779926   -0.85191145617132
O          -0.47335270776693    1.68655309535558   -0.89497800925618
O           1.54866227431486    0.36209969731961   -1.22716726795220
O           2.40248333574640   -3.18656148533797    0.13278505935585
H           3.10603658669936   -3.77498574906900   -0.14519766851513
O          -1.44549092486147    3.41245482220153    0.84512451470662
H          -0.77094158563372    4.05340885019550    1.07367433345665
H          -1.05241419943282    2.85067300116259    0.13841342093162
O          -1.80797079916107    1.09609229876573    2.11261237673499
H          -0.90451802778906    0.78080121735569    1.87824447377741
H          -1.77165043507902    2.05951148750526    1.92853743559776
H          -2.53345394272407    0.64001289591654    0.89671505957572
O           1.07917814159175   -2.37070587378706   -2.05165386550240
H           1.63439111570192   -1.70864657502149   -2.47251577711090
H           1.85764644329789   -3.00694015634522   -0.66755895526464
H           0.35749207496859   -1.85854928766353   -1.63420767914283
O           2.90529653731843   -0.61720375381230    0.66813809107866
H           2.79197599893082   -1.59274965670848    0.58311566609714
H           2.21280830855082   -0.01141179450013   -0.54719316651410
H           2.17457658383692   -0.30955576383243    1.22751266994465
N          -2.82955476394425    0.36866722299981   -0.13024585848750
H          -1.98804965799614   -0.19563721817111   -0.49897075776505
H          -2.86842996153948    1.22415009062622   -0.68185010869239
H          -3.69997236721854   -0.15151662215763   -0.17573385250855
