    26
        -50.46160227  Gyration_radius:  2.61726473522 Dipole_moment: 3.622
 S           0.35312038753378    0.06376338229338    0.59840953579564
O           0.78608635187029   -0.85563768628017   -0.47588361796131
O           0.20220465096979   -0.68282098874203    1.83211400485129
O           1.48166498889198    1.10799328155077    0.77926885696827
O          -0.86654709504712    0.76338974382844    0.21690185727977
O           1.49300021713296    2.24243911754452   -2.94607736562892
H           2.12175345057531    2.81179629206185   -3.39214568128805
O          -2.15691469762962   -1.02621892576092    2.95838670091640
H          -1.23767615553534   -0.88527478583945    2.63499753124004
H          -2.33977149545607   -0.29504726088108    3.55006304029727
O          -2.77670911171747   -1.04705386892277    0.36651165622112
H          -1.75862552753653   -2.12037026028702    0.21257771008148
H          -2.86530028630246   -1.04395431613176    1.34407006348395
H          -2.20421991343468   -0.26656800910846    0.18302397201740
O           0.43573887148654    2.95305804932106   -0.59695415250805
H           1.16628261017729    1.93832740716449    0.27547607881331
H           0.75233080863835    2.79303685910346   -1.51671019349697
H          -0.38019582359508    2.43706241227834   -0.49988691445521
O           2.85984729495499    0.33815216712546   -1.64456128718213
H           2.11802118319928   -0.20744310057893   -1.31375751910098
H           2.00954897155032    1.48478182069290   -2.58729360027789
H           3.22315751258205    0.75573258519400   -0.85880365188276
N          -0.83528434892710   -2.72328790122289    0.21083521659407
H          -0.08948495241886   -2.04891220159586   -0.17815892422353
H          -0.91163205227486   -3.57770070161613   -0.33179521817174
H          -0.58039583968015   -2.90924312120193    1.17939194161209
