    26
        -50.45300977  Gyration_radius:  2.43486541846 Dipole_moment: 5.194
 S           1.41389625617122    1.12050567481579    1.06532571850506
O           0.79581394993445    1.95593632978341    0.04660219344552
O           0.28589515824498    0.32003645829529    1.75491181887678
O           2.26056507286774    0.05605204282534    0.34892061855788
O           2.19103403666739    1.79979604140541    2.03223127436234
O          -0.54182632604180   -0.72706650241351   -2.13998332702262
H          -0.99740599388146   -0.81943946131280   -2.97747234221487
O          -1.76067452970918    2.71912854560948   -0.14830941083764
H          -0.78963262513516    2.61246423192578   -0.16748354572762
H          -1.94646418601742    3.37224023717657    0.52786634910772
O          -1.69765936616369    0.07314228747115    0.18799684816493
H          -0.51320605575998    0.20559517069087    1.12235239630771
H          -1.93807792609208    1.01544191005576    0.05255462081125
H          -1.36163477808891   -0.23438288267558   -0.67780617832128
O           1.47518838257089    0.93867374977721   -2.29271330701189
H           0.19639190888174   -0.07604489259146   -2.28952224752344
H           1.24610739387793    1.46844920395881   -1.50026017672299
H           2.30102209174231    0.49987942537105   -2.07201563226693
O           0.95479797492850   -2.00246028562701   -0.22690557714990
H           1.73163598572413   -0.81579041686893    0.13222905125536
H           0.32938581543481   -2.22332520742961    0.51767584477686
H           0.39742760356089   -1.75034899557600   -0.98170952655157
N          -0.82835772938203   -2.40985917440122    1.72398678690131
H          -0.44072012462116   -1.86832193596903    2.48716363309747
H          -1.11305151557921   -3.31292120032013    2.08032500992470
H          -1.65045048413675   -1.91738035397691    1.39403911725537
