    26
        -50.46278508  Gyration_radius:  2.5483465187 Dipole_moment: 6.690
 S           0.35921485817756   -0.45916458591363    1.09227608201995
O           1.04010571698725   -1.60390776252641    0.52230729593334
O           0.00162469479583   -0.77291442060269    2.56853577535258
O           1.19687657350477    0.74444788170421    1.12804614086570
O          -0.89442643226449   -0.16211599829070    0.39378523151661
O           0.78214200952657    0.91158454768075   -2.96178925567451
H           0.68482296042099    0.25874928139177   -3.65647503120186
O          -2.47293908204638   -2.28549525112933    0.55946323216371
H          -3.28624643526973   -1.96453374769669    0.95247696199201
H          -1.91265822762109   -1.49444747841386    0.40603565378052
O          -0.44726351243677   -3.24346707027685    2.04911062426157
H           0.25248013414859   -3.12368807567744    1.38888813522454
H          -0.20640098715709   -1.75377759446316    2.55782702024096
H          -1.28378698793880   -3.14666110973753    1.54867726662615
O          -1.30345550613634    1.62431749178112   -1.49115338327493
H          -1.33322779064265    0.86314755801326   -0.86977507768631
H          -0.51449044739494    2.46742405162159   -0.61071293895199
H          -0.63171079509741    1.36925879153363   -2.16819535592714
O           2.44241179427107   -0.15831316573747   -1.17695444598455
H           1.97235438248700   -0.86093134074285   -0.68336147304971
H           1.43175009072255    0.52814869735652   -2.32454571316362
H           2.67966279265099    0.47054771198423   -0.48938884640121
N           0.19222213711100    2.89230616437445    0.13918750087283
H          -0.29198074410404    3.45341742117072    0.83153265901321
H           0.92097935503889    3.43258352560489   -0.31588150052900
H           0.62193944834415    2.01348447707652    0.61008346202455
