    26
        -50.46972956  Gyration_radius:  2.43070290706 Dipole_moment: 5.133
 S          -0.04035596758080    1.55479350969938   -0.22232599286756
O          -1.19763399229671    1.80588776897523   -1.04777044641714
O          -0.41449389890941    0.37144706021477    0.76823343132006
O           1.08464741123826    1.02009572025281   -1.01616452585153
O           0.36389345361741    2.62986615930382    0.64521320268941
O          -0.32966454511423   -0.26357596387120   -2.83580673772027
H           0.31156687664532    0.24599843896047   -2.29854987343718
H          -1.03908061234170    0.35926927247115   -3.01878475375379
O          -3.26583120777783    0.16374074758559   -0.84008922997754
H          -3.97526384563628    0.60680884306390   -0.37415855665003
H          -2.55639776624498    0.83463912573474   -0.95308803588063
O           0.72002064846162   -2.56501003672291    0.88915886538070
H           0.04976860012831   -2.39732286867009    0.20259508816118
H           0.23379247894566   -2.65007384345347    1.71148381012723
O           1.59540767784156    1.40744377614362    2.56859830601240
H           0.86048691119846    1.14673718960204    3.12752352369109
H           2.12941928793978    0.24715235714159    1.59463051635335
H           1.18685019593547    1.99194844237101    1.87623499832390
O          -1.23921541428595   -1.58251287993932   -0.75445006597869
H          -0.75894733600938   -0.37685586831887    0.20922720663229
H          -2.16541225989875   -1.28196772377875   -0.76057794045730
H          -0.87932575224287   -1.26429526671411   -1.62347790414852
N           2.31916784485268   -0.37305742783824    0.75522100003229
H           1.91455709977170    0.18190431145607   -0.06920594611362
H           1.78100222726951   -1.26692966201481    0.83480909651524
H           3.31104187449544   -0.54613119164592    0.63152094402543
