    26
        -50.46278520  Gyration_radius:  2.54848476456 Dipole_moment: 6.687
 S           0.38026245328788    0.42655340401921    1.09941341534336
O           0.49088532719477   -0.88219944930392    1.71066518881407
O          -0.79692763383262    0.53003594469259    0.23266795070130
O           0.22449955028757    1.49040501514971    2.21754942290513
O           1.57874707478772    0.80867593957701    0.34485650333852
O           0.46026079573239   -1.99791422043273   -2.45677908056265
H           0.00362789841048   -2.83958811083839   -2.41992165830028
O          -2.95875506973518    0.06531580114498    1.69509023271051
H          -3.51477606041917    0.83677048036599    1.57410607800257
H          -2.19640604062683    0.17975148660667    1.08771138543603
O          -0.90678816619287    0.27049833705158   -2.38124229661493
H          -0.51416753286010   -0.62509948009280   -2.51716175204764
H          -1.08236123507942    0.32197317152986   -1.41542259452839
H           0.28331083415857    1.10142279642589   -2.33089115219521
O           1.94642934815080   -1.87120199638783   -0.25122483695215
H           2.51697716992888   -1.09711094518547   -0.25073219128158
H           1.36613399067742   -1.71949967987128    0.52225696156274
H           1.04250834731001   -1.97510553442855   -1.65965484414164
O          -1.15573943562938   -0.09508798231597    3.68600186406687
H          -1.98369577478213   -0.10792579002446    3.16264415093032
H          -0.59892553163777   -0.78112098961331    3.28705981704215
H          -0.31326341973847    1.01841451163620    2.92009377835126
N           1.22406409808967    1.63483090114139   -2.06176900784371
H           1.11051104881426    2.64115129666309   -2.11751817485434
H           1.99476843334324    1.32698971872652   -2.64600988873112
H           1.39881953031822    1.33906533376871   -1.03178927130953
