    26
        -50.46278495  Gyration_radius:  2.54803700717 Dipole_moment: 6.685
 S           1.03404228138313   -0.11533139859086   -0.67305024744588
O           0.55837577164947    0.71363398911194   -1.76178414521296
O          -0.02174532182095   -0.98084481823990   -0.14035770541051
O           2.16346014649044   -1.03748908865026   -1.20189239491570
O           1.62795892543571    0.66188444741266    0.42013756701870
O          -2.18636121604092    1.91726830635502    1.32528279657076
H          -2.97636274712060    2.09260725791993    0.81199705550273
O          -0.90677083821146   -2.53546112382597   -2.09696268958008
H          -0.67029223335031   -1.94529164426552   -1.34933170634458
H          -0.80707134884537   -3.43162803750708   -1.77153650718611
O          -1.52889701054112   -0.56638623992325    1.97355773948957
H          -1.12974605684280   -0.85730750045549    1.12363095047298
H          -0.26465280420979   -0.17760655058070    2.57289864848772
H          -1.92884615863072    0.31397343628151    1.77456280740664
O          -0.14013756210956    2.70524906280550   -0.18406391442188
H           0.69407673180282    2.65180329932527    0.29123590797321
H          -0.01953245016967    2.06625215698783   -0.91560594076340
H          -1.43410950803031    2.25159766860513    0.77986268295324
O           1.03210397721996   -1.29264534822029   -3.48878145438151
H           1.87893134988758   -1.24453484099946   -2.14082176504429
H           0.27621002728341   -1.85774250067993   -3.22643534287517
H           0.73268707008118   -0.38527993386473   -3.32479360916165
N           0.76835573589754    0.17859266315616    2.79258843629878
H           1.18722466136268    0.36662422645653    1.80879584994118
H           1.31323520064893   -0.53096717728872    3.27039002109362
H           0.74786337797642    1.03902969863175    3.33047693975514
