    26
        -50.45300972  Gyration_radius:  2.43479680743 Dipole_moment: 5.196
 S           1.69304485129995    0.70807135611888    1.00994087405530
O           0.95582002147731    1.82850379874606    0.44513616775562
O           2.28013807561972   -0.10326713327475   -0.15620482308271
O           2.70696106321276    1.04177410187314    1.93779473910174
O           0.66348656379802   -0.24117011229736    1.66405966673307
O          -1.02719553118433   -0.02070831446024   -2.08471982333357
H          -1.64971888919062    0.15779218316942   -2.79049576657291
O          -1.50912702493443    2.66962496389979    1.05516738913535
H          -0.57566888385102    2.55329798434051    0.79096601795164
H          -1.49495411255787    3.08641031074866    1.91791781540863
O          -1.61046101236758    0.04778080838544    0.57053123649752
H          -1.48561484921360    0.01515197792789   -0.39929452605319
H          -0.25419612115898   -0.13899024382279    1.21769295250452
H          -1.79013845650715    0.99082323468361    0.77660110217358
O           1.05569177924301    1.56641148904693   -2.17951932100320
H          -0.28056377550025    0.62868257819460   -2.19426808388003
H           1.03929840811542    1.83148957236662   -1.23579544121479
H           1.86716538961791    1.06290518547819   -2.28555796379278
O           0.70883095433555   -1.85517468584589   -1.01384509907402
H           0.23115054514024   -2.28115091630251   -0.24912862153889
H           0.03409312849555   -1.37095013023848   -1.51795906773090
H           1.64337873079691   -0.85396178380189   -0.49974857065536
N          -0.66812571620551   -2.80494822730335    1.07236613377361
H          -0.08778890726276   -2.53149851130697    1.85619167941634
H          -0.95070981997302   -3.76799895723795    1.19986465497732
H          -1.49479641124632   -2.21890052908568    1.09230665844939
