    26
        -50.46278524  Gyration_radius:  2.5486725142 Dipole_moment: 6.693
 S          -0.72753897109190    0.25411168892241   -0.97091264965991
O          -0.20191841610828   -0.80518722323719   -1.80762706309331
O          -0.87090106130132   -0.16822065344146    0.42506194955269
O           0.07390382259878    1.48133235501466   -1.03142222522316
O          -2.13961095214187    0.64276641432256   -1.48205244043628
O           2.94540735738952   -0.52139608216127    1.13698493380302
H           3.23804205148978   -1.43211106533210    1.19299650548250
O          -2.51892353748573   -2.24309342043030    0.50947884237713
H          -3.21500734177471   -1.98640113388209    1.11656341499018
H          -1.85228940413769   -1.52338223420046    0.53811918700099
O           2.30942912927827   -0.10782317162822   -1.41524858051347
H           2.10384866844704    0.81639255281122   -1.58310473688574
H           2.75149530970041   -0.36170785752855    0.18206743894588
H           1.46765298462987   -0.56302593371177   -1.62033407255203
O          -2.68906201543780   -1.77523032829245   -2.13482721676104
H          -1.74028573741056   -1.82880140256501   -2.32659012728357
H          -2.78620448483268   -2.15843837099897   -1.23856433840990
H          -2.52316069845182   -0.22678094907698   -1.80199478457306
O           0.77311088957541    0.27662404560119    2.42803626402042
H           1.61902377720128   -0.10263912280618    2.08886606113986
H           0.81209225217299    1.61341588334853    1.86046851779882
H           0.08560507771026   -0.05445885767760    1.80838360725742
N           0.78793868027632    2.51669885629327    1.20855069913953
H           0.12633944114351    3.20531213357186    1.55028319758355
H           0.45697350837561    2.13017628388572    0.24929984205215
H           1.71403969046403    2.92186760296423    1.11751776414090
