    26
        -50.46278530  Gyration_radius:  2.54870537553 Dipole_moment: 6.698
 S           1.11003779076762    0.33199796749552    0.44108937306990
O           1.75847740073060    0.37869230225497   -0.85349583918232
O          -0.25491270168302    0.86316644582803    0.39125372005112
O           1.09065086925224   -1.01448193306124    1.02271597286543
O           1.91130062668028    1.21304363833264    1.43514386956962
O          -1.72895754549378   -1.98532892372038   -1.81964811626825
H          -1.90122118943217   -1.70910096084348   -2.72092444576996
O          -0.14724655366253    3.37742565798893   -0.44289486191538
H          -0.25967051569418    2.43448701303767   -0.19516368275580
H          -0.59145483039420    3.88687794009896    0.23685439077679
O          -2.50896002168406   -0.47807635170544    0.21528594542073
H          -1.87419941888740   -1.32259014817794    1.21214079328804
H          -1.78873168717522    0.19088629629539    0.20521929155901
H          -2.36977447838469   -1.00758550720730   -0.60619067400127
O           2.50374283013557    2.91986418796566   -0.38444511030810
H           2.24401120225634    1.96906966874283    0.86657472447778
H           2.50270651420835    2.14396002445164   -0.96564299121590
H           1.62129442002244    3.32682345102233   -0.50774384137726
O           0.92036708331362   -2.01949983766519   -1.55509423359098
H           1.18789282613412   -2.39081032811695   -0.70953815142146
H          -0.74617740558531   -2.03699004793077   -1.73974350579001
H           1.25847818194216   -1.10203201386203   -1.51220757668319
N          -1.17257287260489   -1.88570636751699    1.86967699063339
H          -1.23981285038431   -2.88406975236932    1.69986756959511
H          -1.33085791233266   -1.67638999453039    2.84937184927930
H          -0.19440977202395   -1.52363240679268    1.56753857990969
