    26
        -50.46278515  Gyration_radius:  2.54870124748 Dipole_moment: 6.702
 S           0.11356562486405    0.56929884372921   -1.09625560351639
O          -0.35048264200266    0.66189438451123   -2.57361340092217
O          -0.86311339757300   -0.25992073822497   -0.38456951829992
O           1.40996097977630   -0.11635899782969   -1.12435052685838
O           0.19366660846990    1.90696756424351   -0.54588410827283
O           1.10952118620849   -0.43793053439232    2.97095322006390
H           0.72117437939849    0.09760589572117    3.66422709443823
O          -3.24058450881941    0.90028023683617   -0.55676359209963
H          -3.81776263039996    0.23543720521627   -0.93596823305932
H          -2.37903438905135    0.45709297499326   -0.40014459811062
O           2.08382947642452    1.27266508210539    1.17816865537072
H           1.50568588847717    0.20085328884659    2.33065058556911
H           2.59118267739719    0.82103050834910    0.49768096061739
H           1.34869079601485    1.67838404724306    0.67526198528362
O          -1.88499216311947    2.65608213433441   -2.07990280200686
H          -0.98710018719601    1.43661872783181   -2.57346754776852
H          -2.58198701099832    2.19388458056082   -1.56984311138028
H          -1.20667868448618    2.88183212105112   -1.42512101687564
O          -0.41115951986928   -2.03416382841917    1.50149032875378
H          -0.78502660240244   -1.37173030090493    0.87872791952059
H           0.67546294893887   -2.42564884944879    0.62120424919393
H           0.06835665926559   -1.49838472917396    2.17804225620731
N           1.49665143868191   -2.48336508085899   -0.13008367169010
H           2.39251326704127   -2.63146857778511    0.32329786911549
H           1.47788626785209   -1.50611974015741   -0.60311898383163
H           1.31977353712133   -3.20483621838599   -0.82061838938207
