    26
        -50.46278516  Gyration_radius:  2.54884504897 Dipole_moment: 6.697
 S           0.25892034557469    0.61634427073738   -1.04515476221968
O           1.63607566185052    0.54270456924242   -0.54545486548282
O           0.16248534425800    1.95071373003568   -1.83045320004026
O          -0.07836969161252   -0.47592676054996   -1.93494051500028
O          -0.66779515342921    0.70938723206908    0.08633872208732
O           0.40584208758075   -2.62137198624533    1.79436116451365
H          -0.24524933429015   -3.31799954634043    1.69913063748869
O          -3.11551495170542    1.07563916377153   -0.86366348040504
H          -2.24693054847139    0.87478343426059   -0.45328154892016
H          -3.43172567256725    1.87598888926321   -0.44122154995613
O          -1.82223212090088    1.11577877558418   -3.22300208071571
H          -2.51194225896121    1.12192205893189   -2.52742181979964
H          -0.59947087207699    1.79796886792871   -2.46426258662346
H          -1.38786715891319    0.25365715656894   -3.13413733237828
O          -0.33500470653280   -0.18758058428866    2.53514221285073
H          -0.67384467022267    0.14545968643407    1.67463019091506
H          -0.16097989681364   -1.14698037003552    2.38059922979799
H           0.99317773912898    0.37661937163075    2.36701685138335
O           1.41363888615567   -2.21902427226380   -0.63755055853588
H           2.15674219809415   -1.60925309775471   -0.61722214315182
H           0.80539737962287   -2.50558862417005    0.89896416908983
H           0.75842589808960   -1.75322239596251   -1.19582059541903
N           1.96762179920746    0.76544973824417    1.99190153597755
H           2.73382507757802    0.17033803930790    2.29003226395795
H           2.12306755950034    1.72436688885043    2.28347131297435
H           1.86170706957902    0.71982575502203    0.91199877770866
