    26
        -50.46294304  Gyration_radius:  2.57085333516 Dipole_moment: 5.005
 S           0.86229126800319    0.28711723736114    0.76076636489209
O           0.36479769297263    1.54406928931063    1.28009221637702
O           0.33587510248552   -0.86741390610794    1.50737244969473
O           0.59936118201778    0.13543277856932   -0.66689942706202
O           2.40363469471876    0.22875499475220    0.95829020276163
O          -3.14191712029734   -0.71771177875708   -0.81776649888570
H          -3.66347870685477   -0.02394142273461   -1.22372107596645
O           1.50668529516487    3.64524749679662    0.15429286305132
H           0.98901518204893    2.92915265170721    0.58415714966286
H           1.91927900784043    4.13603961349779    0.86704923606428
O          -2.06428038614303    0.32282946704594    1.40018918845349
H          -1.61703004721749    1.17513686334029    1.32180431968906
H          -2.80083544364389   -0.34223137335430    0.02682389297699
H          -1.33964944298303   -0.26634038575317    1.66437081944006
O           2.78630998000167    1.66957966195913   -1.13251919527109
H           1.99851017679770    1.20315179915141   -1.44874532768796
H           2.45776080318497    2.53869184705001   -0.81779828290138
H           2.75749726813438    0.78187823826596    0.20305306822348
O          -0.90117652823889   -1.60396989377591   -1.92509992243006
H          -0.30771853890266   -0.87072269425950   -1.64196490408336
H          -0.56358530579502   -2.48597237303517   -0.83563180624150
H          -1.80502021594906   -1.29806153733363   -1.67344774837073
N          -0.26584004256472   -2.96192270555837    0.13317467277811
H           0.50785713673803   -3.60676061404771    0.01281196077148
H          -1.05819230279561   -3.42728773671615    0.56478528988039
H           0.03984928120636   -2.12474549745905    0.74456050424761
