    26
        -50.46294300  Gyration_radius:  2.57093566529 Dipole_moment: 5.002
 S          -0.85586642853835    0.14112951941603   -0.80794800170797
O          -0.28888661037487    0.77067356435030    0.38051609157525
O          -2.28646122103985    0.71896428270957   -1.00259488643974
O          -0.07173654213530    0.40532394184792   -1.99629943237605
O          -1.05209494891808   -1.30066586362860   -0.58353613403744
O           2.70415154814101   -1.46807981992009    1.25926612724245
H           3.54442567008028   -1.02392634490888    1.13768517026697
O           0.06232415172401    2.97707959241182   -2.59188023370201
H           0.11655972004165    2.01175185477536   -2.41655574905481
H          -0.30438119259539    3.06421127367473   -3.47338412993801
O          -1.47826132346483    3.08041332072014   -0.39786616487495
H          -0.88202838223064    2.59308685027557    0.18966453020514
H          -0.93680249477863    3.29673198987991   -1.18673253332986
H          -2.17140685076247    1.69566045412159   -0.81806996219225
O           0.69629671138567   -0.31470284106684    2.55146190783548
H           0.38372751205536    0.27220467081641    1.82503472221722
H          -0.24636738914602   -1.37413136310757    2.29120889172392
H           1.53981349581232   -0.69730330445781    2.21083118544465
O           1.54967433467256   -1.61093335357675   -1.15106720722521
H           2.31725335451014   -1.56900396496960    0.35882976059488
H           0.60987857269409   -1.80323114246303   -1.00326195020430
H           1.51314725621597   -0.80154173473281   -1.67649471010102
N          -0.96212511262031   -2.11828845831219    1.85804051996903
H          -0.56836336802637   -3.05368173125339    1.88196939664839
H          -1.07247685179217   -1.79766203687735    0.83188965833440
H          -1.85999360077978   -2.09407937562684    2.32929314317493
