    26
        -50.46294294  Gyration_radius:  2.57121482798 Dipole_moment: 4.999
 S           0.77236216553588    0.67426132666326    0.59567255904765
O           0.39916686800480    0.28711952550325   -0.76111564281904
O           1.59839157710702    1.98782029975578    0.49364539888719
O          -0.42309808892946    1.03282205717057    1.37655837839554
O           1.57032415849132   -0.33786152111594    1.25593429140936
O          -2.40732332498727   -2.28386660256917   -0.24197023997247
H          -2.15195778522113   -3.16697203035072   -0.51213784101567
O           3.86541381380190   -0.80518241851529    0.03120860559979
H           3.01455792646062   -0.74116046978815    0.51854375466727
H           4.55176901889636   -0.61861325281175    0.67403841911657
O           2.85889652511727    1.10418717831667   -1.56190269620708
H           2.01108517055424    0.67316011745665   -1.74487620214560
H           2.20178213073449    1.82438351459794   -0.28773823535006
H           3.41484159151437    0.40783833720922   -1.15154949444826
O          -0.78817311006756   -1.59363315426406    1.77461651678038
H          -1.84691937264156   -2.06563918579956    0.53829804579751
H           0.16056985918489   -1.72541208193085    1.65187927744671
H          -0.85144657420452   -0.62999730765588    1.87126736053147
O          -1.96598637102251   -0.17521812908916   -1.78810460305461
H          -2.42878121746245    0.79032720054928   -0.82235325817859
H          -1.00848262073882   -0.05690366923304   -1.59040273065130
H          -2.20065291260970   -1.03153290263003   -1.35725783586619
N          -2.58676249681737    1.47423800220650    0.04986601416505
H          -1.68096159631709    1.36161386591862    0.62887033556247
H          -3.38372720732271    1.17524645713821    0.60302467622294
H          -2.69488813702459    2.43897484328520   -0.24401483390114
