    26
        -50.45300982  Gyration_radius:  2.43484381228 Dipole_moment: 5.195
 S           1.64949384981355    1.02704422961310    0.78299742745967
O           2.23313072528887   -0.33372257699792    0.36980129260638
O           1.18527239488881    1.69605347752360   -0.42313500681055
O           0.40306098740890    0.67503770944766    1.62636648147582
O           2.58158988871992    1.74565478167786    1.56721581046441
O          -0.74982686776274   -1.10164323567127   -1.90405494261804
H          -1.24143908354797   -1.30094325466642   -2.70160030478543
O          -1.16216524789296    2.90529757621355   -0.85139946251240
H          -1.18617761382592    3.72856323928039   -0.36161085572206
H          -0.23558300535330    2.59652447315895   -0.82429297037281
O          -1.63864662831702    0.47027640969224    0.12950937841453
H          -1.40196997547859   -0.10390331036608   -0.62639318439551
H          -0.42256777440844    0.57806834594258    1.02583258288024
H          -1.68260295550672    1.37908179204536   -0.23958837897501
O           1.56251424758202    0.01586589318920   -2.42373764576774
H           0.10203598759244   -0.67639653067068   -2.19513695612789
H           1.47413788220015    0.76024302871212   -1.79185704238445
H           2.28583209779426   -0.51785418290484   -2.08428831967470
O           0.51064632162645   -2.15060570965617    0.29534616621374
H           1.52798504748049   -1.10160769889398    0.36512115505868
H          -0.12249046566772   -2.04550598271347    1.05859467750229
H          -0.00640464628867   -1.98143191100991   -0.50960252085394
N          -1.25384417260076   -1.68314452419825    2.24949333267994
H          -1.96627434719427   -1.12659083679496    1.79135140763376
H          -0.73786410043334   -1.06371687741531    2.86267777398270
H          -1.70784254611918   -2.39064434453768    2.81239011462650
