    26
        -50.46294288  Gyration_radius:  2.57093198392 Dipole_moment: 4.996
 S          -1.10087814540976   -0.40412237916508   -0.17509981082703
O          -0.35818741455937    0.61217626453493    0.56363152223893
O          -0.44249521526359   -1.71521514698670   -0.05130075917007
O          -2.47817667855726   -0.57512069943532    0.52640265392530
O          -1.31558431704033   -0.03112741526080   -1.55770162215498
O           3.26045004600000    0.15425385284359   -0.63422268175390
H           3.57368596277589    0.90048791687663   -1.14713810155837
O          -2.74563990424967    2.17643589683787   -1.81855872290954
H          -2.16154429256795    1.38626261732786   -1.81841252125879
H          -3.51859426285185    1.93227931259312   -2.33046532192826
O          -2.69212658951116    1.96298895417876    0.85504176269595
H          -2.75560219157732    0.36444191801587    0.72985701490868
H          -1.72991337269429    1.90837291681211    0.95136023839137
H          -2.83860904576913    2.25590379784482   -0.06969090087978
O           1.22096365658765   -0.91744360490696   -1.99635191688468
H           0.73115720653903   -1.48118201377369   -1.37635676143193
H           0.53422147303529   -0.31810051278004   -2.31513396694399
H           2.55211887712863   -0.26799657511177   -1.17328403158490
O           2.00842110574962    0.48772471233043    1.67946470673070
H           1.70425979952859   -0.90990840769412    1.86188115794542
H           2.59557553904737    0.47232397512960    0.88641539823913
H           1.12357566389805    0.73259546144339    1.32309473997745
N           1.31817871001020   -1.95971349435988    1.81345740126605
H           0.93197361453435   -2.25932475563815    2.70222111787061
H           2.04486661056752   -2.59733502634232    1.50367089159450
H           0.53790317468524   -1.90965756524321    1.06721851342546
