    26
        -50.45300973  Gyration_radius:  2.43483679048 Dipole_moment: 5.197
 S           0.97588584579141    1.22743572265402    1.38911815443315
O           1.19570305568669    1.34852173442544   -0.13596077806081
O           1.74003049722969    2.20294820850937    2.07084949481588
O          -0.45929418010879    1.26498981456063    1.62726931150270
O           1.47314705442868   -0.18405643175142    1.74026857474326
O          -1.40506597241098   -1.84412049549216   -0.16202833985431
H          -2.18262069003816   -2.37965098277240   -0.32363512593312
O          -2.38486383436497    2.19745699733673    0.02160084904857
H          -1.80421964094081    1.91161207539581    0.75360869753427
H          -2.34284787247949    3.15458895931096    0.00257765547150
O          -0.85604573935077    0.52227727526589   -1.38389337237874
H           0.37548528528454    1.00375952250223   -0.64614095001718
H          -1.10788855947641   -0.34592100467215   -1.00963415125201
H          -1.53282913464860    1.15244269961964   -1.05379198599841
O           1.33727525040538   -1.77480433813287   -0.18974445873658
H           0.39385691741466   -1.98822344790445   -0.28080655714013
H           1.59793483617535   -1.30605039997467   -1.03040437368141
H           1.44726909465639   -0.84447536114363    0.93397218114836
O          -1.17794800499483   -1.16725021652623    2.35913549946219
H          -1.02245005565443   -0.21132640658683    2.20690223054135
H          -1.40553771100667   -1.62961169143316    0.81017716773350
H          -0.35696288193888   -1.49963543651548    2.73163862637567
N           1.85776563256350   -0.39495638096594   -2.42037351175780
H           2.37360685689395   -0.74201939470225   -3.21850025886539
H           2.33104016888464    0.42526083008922   -2.06089072692172
H           0.93957379199940   -0.09919186109705   -2.73131385221363
