    26
        -50.46294269  Gyration_radius:  2.57159962106 Dipole_moment: 5.023
 S           1.11940713491642    0.38822381169385    0.04642004046396
O           0.08514485864457   -0.00841284942075   -0.90394314503519
O           2.48508245322323    0.31042331149718   -0.69321296003475
O           0.92324865186576    1.73533821695187    0.54024746364264
O           1.21928426563603   -0.59294415801687    1.13955315272746
O          -2.96127381201565   -0.75014469737612    1.31501434958896
H          -3.67868137613440   -0.12734438162316    1.19049494691300
O           1.02649635948763    3.56431526336344   -1.36490508112769
H           0.91425945375059    2.95400234561398   -0.60300996572560
H           1.73987715555220    4.15774710166909   -1.12389159885116
O          -0.87997142081858    0.64197412499356    2.26114461658571
H          -2.22307038166882   -0.23749863770669    1.71843373255267
H          -0.09272631525525    0.08646445237423    2.14460414905832
H          -0.63154320267229    1.45005179184710    1.79439408709681
O           1.46248675857896    1.34589056081599   -2.80904880931996
H           1.31291187757174    2.26807764485859   -2.50973675180050
H           2.28874756787441    0.70986685337124   -1.58941587495658
H           0.67722132483785    0.85784581624760   -2.52045025972048
O          -1.72347932624092   -1.89507796869438   -0.73254083228739
H          -0.74848954202534   -2.57586158092252    0.08344245780363
H          -2.33335227744465   -1.51794169148783   -0.05481640690075
H          -1.13582377586330   -1.14352151928120   -0.97743638277336
N           0.09131480807469   -2.87774679760069    0.75931850094802
H           0.63118827801930   -1.95562522297368    0.92202028192683
H           0.69705538667617   -3.56427695162539    0.32276318946350
H          -0.26531491458891   -3.22382484856225    1.64455711977222
