    26
        -50.46294282  Gyration_radius:  2.57154944004 Dipole_moment: 5.019
 S          -0.00186556436695   -1.09008929182676    0.46630805981315
O           1.39659826125247   -1.24627992883756    0.80846122891232
O          -0.64966767580089   -2.49578402102913    0.31618217275776
O          -0.76382192025779   -0.42976207472668    1.53910204030287
O          -0.18646768509041   -0.38710822924274   -0.79937221164622
O           0.50417311211962    3.28692717815937    0.08533663608290
H           1.29946503409979    3.62902873960953   -0.32537728403734
O           2.74086428210481   -2.68063868082246   -0.95838767767435
H           3.09647466812151   -3.42921561350005   -0.47638868628487
H           2.33915219195012   -2.09091230812360   -0.28281781360245
O          -1.31042208714468    1.92692907934367   -1.29033991717275
H          -0.64533578148972    2.54997093940364   -0.91216896295397
H          -0.84789285838548    1.05748245509500   -1.30881358851940
H          -2.12991002873546    1.62569182488747   -0.14267357077438
O           1.26536808004870    1.31314242189793    1.72530881577870
H           0.80303393741635    2.60388997042004    0.72929443191602
H           0.46915001252180    0.80065032908915    1.93816521421231
H           1.85555444768152    0.63661663386327    1.36963534774663
O           0.29521509800680   -2.74116624559566   -2.05909879371474
H          -0.36430767631442   -2.78847376260508   -0.59713135945430
H           0.15041938192633   -1.78384277493834   -2.08417757365050
H           1.25115165808495   -2.84891071870891   -1.86664657500684
N          -2.57616615377593    1.25138738721633    0.81346385623251
H          -1.87123594909089    0.50331411893362    1.14766882176209
H          -3.48686400395173    0.83050751229326    0.66393140627058
H          -2.63266282097940    1.99664503967500    1.50053597270753
