    26
        -50.45538177  Gyration_radius:  2.56578152493 Dipole_moment: 4.089
 S           1.01127158830633    0.23268163738699   -0.15675045483385
O           1.41308902461862   -0.94416614657775   -0.88741321337398
O           2.18828027655208    0.74347058541140    0.70281436996982
O           0.60394467394611    1.34718424451500   -1.00906980809957
O          -0.09044838700221   -0.08093841223087    0.78667725517799
O          -2.96994017619932   -0.05236759723425   -1.66161830042527
H          -3.41138911921106    0.52075846387663   -2.29168489602670
O          -1.11339455052769    3.15917388581900   -0.33334071351656
H          -0.70187333474638    3.75765545364229    0.29280736212873
H          -0.38690306061571    2.57758873691107   -0.67895275252360
O          -2.25541011529297    1.04836037004628    0.50813399480890
H          -1.33023973565839    0.52561537138575    0.69135521810921
H          -1.93818434837537    1.97782026511997    0.21971817520466
H          -2.63644281939027    0.58944313903119   -0.33746509128164
O          -0.57163183056654   -0.36951433510185   -2.64729346835285
H          -0.15105071746919    0.44177552602057   -2.30998651327323
H           0.00688737249092   -1.05993356793648   -2.29651369173214
H          -2.08969378162403   -0.28441295930122   -2.06900527702123
O           3.23259353602466   -1.55689746282060    0.99447420878854
H           2.57679284544013   -1.92836476976416    1.63517299739684
H           2.84690544469142   -1.73000806178837    0.12229789763025
H           2.73131635592854   -0.08393163774116    0.91284903319928
N           1.02574024932897   -2.21526390769954    2.38389024732930
H           0.52274742325378   -1.49482111218190    1.86661802060302
H           0.91308214477456   -2.02041458200809    3.37075827445687
H           0.57395103133603   -3.10049315676082    2.19152710561720
