    26
        -50.45538181  Gyration_radius:  2.56574993112 Dipole_moment: 4.090
 S           0.36394319303227    0.60121475539111   -0.77938430692357
O          -0.23304017387506    1.59983992713831   -1.79502820912253
O           1.49002264832773    1.20121795573879   -0.10688225517734
O          -0.72027914136406    0.28528597581827    0.18335214357335
O           0.69888881467656   -0.60629335618658   -1.53053745816968
O           0.68413853174501   -2.92767676160048    1.59507213464387
H           0.96519774246042   -3.80459406468643    1.32603939610386
O          -0.93984880091322   -2.55674044552927   -1.97690925103794
H          -0.24644312366425   -1.84706898223046   -1.94429961919397
H          -1.56921372976045   -2.28512847521126   -2.64749250463166
O           0.47253203601260    3.66101222670616   -0.48339540589221
H          -0.19122131518011    3.59616166976377    0.24724031687844
H           1.20864546405382    3.10019969047545   -0.19521425403959
H          -0.02720324258317    2.51249125973756   -1.40976636875117
O           2.36140760357112   -1.31774896206039    0.40401657615706
H           1.93603053433166   -1.26090006393089   -0.47044249640872
H           2.40842573015563   -0.38918008512991    0.66859240919864
H           1.37523225660869   -2.29764702924789    1.24846702093732
O          -1.41430042378285   -2.05469919581218    0.47067060882187
H          -1.33312117478293   -2.38625792258072   -0.49429312647585
H          -0.61687308072785   -2.45917895267706    0.99159519764221
H          -1.16440752197493   -1.00907321975555    0.38622076939489
N          -1.23512720646681    2.84281923264719    1.42667885379784
H          -2.22477983679809    3.05483373747518    1.41283687196936
H          -0.93113085867133    2.85615666537614    2.39216643803084
H          -1.11747491444105    1.89095441034206    1.08069652870455
