    26
        -50.45444093  Gyration_radius:  2.55368086475 Dipole_moment: 4.677
 S           0.25774288494027    0.36652273372900   -1.34639291458719
O          -0.94729624321692    1.15112993084696   -1.19406166397670
O          -0.03891637275696   -1.08381673995302   -0.97900625217860
O           0.62857732250355    0.27127495124023   -2.83192976564589
O           1.38138664766785    0.86005594288493   -0.60271377894751
O          -0.29975027737958    0.94008277283524    2.59648445988584
H          -0.83782864550149    1.23975240607424    3.33064427374435
O           2.21091147800082   -0.08175414427454    1.82964047454094
H           2.09153326109550    0.24087316058473    0.92090036874473
H           1.50113045568969    0.33268785250951    2.33995677180960
O           1.37277194540040   -2.60423949478913    1.87213425582636
H           1.70424013960886   -3.01872923242469    1.07398605102350
H           1.83184472979402   -1.73184568144829    1.93856586252412
O          -0.13340439988810    2.79748829593147    0.74203376900868
H          -0.27374034512267    1.68682739732466    1.94119589982158
H           0.79358046957651    2.73934946473557    0.48800926528276
H          -0.60565279340958    2.33680352568377    0.02256792685536
O          -0.87859910628399   -1.37076670220247    1.32602776064853
H          -0.45708030236939   -1.19819466255357    0.01506058909317
H          -0.14909659031689   -1.96581383791185    1.64837244033132
H          -0.74593755722398   -0.52157778921278    1.80294747845848
N          -1.78510942976665   -0.32048167190019   -3.46072446947906
H          -2.30421540889606   -0.03836434429206   -4.28159984916922
H          -2.06062856973333    0.25587670810336   -2.67024231326379
H          -2.00294170248464   -1.28487460081655   -3.24785376325030
H          -0.25352159987013    0.00173376926468   -3.27400286708860
