    26
        -50.45444084  Gyration_radius:  2.55436519415 Dipole_moment: 4.677
 S           0.28760512508716    0.01364634075730   -1.38913886529960
O          -0.76352266636522   -0.93518202128108   -0.82219554479117
O           1.55395687791124   -0.18625288107240   -0.74438419878596
O           0.38485227880211   -0.42497372703392   -2.85590555917687
O          -0.20899703249472    1.36982304971286   -1.31785175143401
O           0.56584880722115    1.17549057661735    2.45346204548484
H           0.38326279068151    1.80257594444470    3.15471415056947
O           1.91347638611106   -1.20166538883508    1.77148344876370
H           1.63430688919022   -0.40126129875167    2.23781741971411
H           1.91554414506955   -0.95907111214683    0.83058453199302
O          -0.23086058667161   -2.71971405143895    2.17572630826610
H           0.65525933641442   -2.28714045766580    2.11212906951593
H          -0.28538446463843   -3.32428272183357    1.43395814047790
O           1.59827368779218    2.38896547491468    0.36083377071464
H           0.87786743129786    2.23172440594075   -0.27880219028647
H           0.95673738465846    1.69617394326183    1.70266264029875
H           2.28607883573547    1.76966944135517    0.09513927076088
O          -1.37721126906492   -0.45133429525444    1.52100612672347
H          -1.06777763165678   -0.68586031315832    0.18832419297965
H          -1.10521422815294   -1.32902601427590    1.90288498584866
H          -0.72709797097868    0.19484743248972    1.87565670347748
N          -1.96543407623612    0.47237769757363   -3.34654637538712
H          -0.52646360926869   -0.15982672628142   -3.23802853438422
H          -2.68524256994472   -0.14951037356461   -3.00307236980532
H          -1.77363535585287    1.17126610340824   -2.63395767341168
H          -2.29622851466311    0.92854095214487   -4.18649974280750
