    26
        -50.46742646  Gyration_radius:  2.40221132504 Dipole_moment: 4.780
 S           0.80063401612471    0.24517226943225   -1.50482931683102
O           0.82146703690725   -1.00677709869850   -0.74839681514198
O           0.43533737389893    0.01178779048721   -2.89992555395841
O          -0.43248933542851    1.06984282885745   -0.97211631241648
O           1.99753980315749    1.02413261259781   -1.30057074980894
O          -1.05741814165535   -0.56328516428600    2.28005985779529
H          -1.35769375555154   -0.90252508187100    3.12385202678566
O           2.53656296048893    1.27589688204280    1.22927510544372
H           2.39728444738971    1.15132614228438    0.25347667438851
H           3.27084024697547    1.88640229382356    1.31065879937247
O          -1.63571441988770   -1.64430506238249   -0.22602928972215
H          -1.72381928790088   -1.20793842996785    0.63838706576430
H          -0.66616925117669   -1.58845601507103   -0.40968977735992
O          -0.10373542449601    1.86312821608088    1.44112477717249
H           0.85948813692062    1.74110789318061    1.54736417008473
H          -0.28181794021728    1.44388492436815   -0.04646695831613
H          -0.53304596815604    1.10381867634764    1.87564893808180
O           1.44139574537311   -1.20460349501688    1.82616754556637
H          -0.11796618799990   -0.88509213173142    2.16836263479212
H           1.32643692231624   -1.30915813719323    0.85983788934590
H           1.99938865376538   -0.41801218189667    1.90711636968177
N          -2.03152261000057   -0.42253333917822   -2.49094380711494
H          -2.00549896668665   -0.92098217846021   -1.53317200805159
H          -2.51635314407743   -0.97494672844352   -3.19126083324415
H          -2.45386638151120    0.49501445556892   -2.38077620404686
H          -0.96926451856991   -0.26289995088024   -2.75715423826520
