    26
        -50.45444078  Gyration_radius:  2.55473112721 Dipole_moment: 4.686
 S          -0.38844142422534   -0.18408780047838   -1.35101479710602
O          -0.63778212550267    0.08312118333117   -2.84082764207857
O           0.81572324197328   -0.94921399526793   -1.19656424373900
O          -0.21408777664165    1.21996163898549   -0.78082812977901
O          -1.56028008000636   -0.79339430235951   -0.76249748311455
O           0.59138573240207   -1.27601841902209    2.39455784254328
H           0.34783749842758   -1.60245040037968    3.26198384416828
O           2.73003983705281   -0.53886686582777    0.71639590843144
H           2.19112858315387   -0.69248349279368   -0.07738313504899
H           2.21780641107493   -0.91544481315285    1.44568832678907
O           2.51111174833878    2.04276220388550    1.31129563720203
H           2.57368833957866    2.52364590375630    0.48456671959111
H           2.77001091963150    1.11141507075922    1.10666918810763
O          -0.38452600010799   -2.82521674911665    0.50634802782594
H           0.35190991315158   -2.86852174386054   -0.11246686021510
H           0.19903734639151   -1.90661527586276    1.73428471673665
H          -1.00312720698573   -2.19188510194065    0.09505720605496
O           0.03029289792505    1.26633832860533    1.67702025146696
H          -0.16014476911123    1.23969885736914    0.30137889193672
H           0.16854610850307    0.34290683027679    1.98373168865834
H           0.93197154997965    1.68603686118590    1.70379378735926
N          -2.92999834005072    1.11479024299225   -2.33923427762816
H          -3.77932024474940    1.03590159750809   -2.88278479756260
H          -2.97048323434645    0.47367366478989   -1.55162893716366
H          -1.55045988851002    0.54559239635924   -2.84388066478887
H          -2.85183902721673    2.05835417028287   -1.98366104871834
