    26
        -50.45396362  Gyration_radius:  2.61588757596 Dipole_moment: 3.039
 S           0.61770194021437   -0.59351000565873   -0.23734211595908
O          -0.08826582262955   -0.00539416686224   -1.46431153929885
O           0.75315162411096   -2.01600458424749   -0.42811509658187
O           1.83150182500844    0.12892047133715    0.01324757963744
O          -0.33728632859271   -0.33414349127570    0.92866623074823
O          -1.59277749980142   -2.34610548516401   -1.73941073103950
H          -0.67003390340674   -2.43648237736315   -1.44674305242712
H          -1.61835283906506   -1.53370661286714   -2.25163736754231
O           1.03791481891006    1.94003135439712    1.88632979501383
H           0.30184653468799    1.43072525547818    2.23498216810256
H           1.49989503403972    1.32622196900958    1.29129325759712
O          -0.23098187376659   -3.68560939962563    1.47508394423305
H           0.36908694580347   -3.72827052016500    2.22079536954358
H           0.24833716223596   -3.23755221976256    0.75529459902137
O          -2.19012131649154   -1.97863861726933    0.81923692726847
H          -1.17874475603470   -0.99737015978210    0.90354214057645
H          -2.21685699266186   -2.17651409075885   -0.14780178889152
H          -1.72209907286387   -2.74168908978836    1.21763459941174
O           1.24560332622092    2.03590356017521   -1.86953969644359
H           2.00010483489312    1.70270627996667   -1.36750828715147
H           0.41721695737164    0.89200187381991   -1.71712906104401
H           0.83377996680299    2.76223742069026   -1.28944892505684
N           0.25124220255765    3.76229695021484   -0.16752385971588
H           0.50775784848188    3.26398891385858    0.68934433425551
H          -0.75245972295105    3.88898389915096   -0.17032271274171
H           0.68283909691376    4.67697286247565   -0.13861671150620
