    26
        -50.45569028  Gyration_radius:  2.49492450805 Dipole_moment: 4.710
 S           0.20194970560779   -0.91384065805308   -0.60064298363442
O           0.13954499756472   -2.31075646334404   -0.15737448623699
O          -0.26911764261458   -0.01908663424467    0.45803698811243
O           1.65362587004781   -0.55901610379457   -0.94376075181388
O          -0.59683749124226   -0.73289267118852   -1.81319702970087
O           1.35047814414335    2.94763100926401    0.07951127599673
H           1.69159294240563    3.76141608060513   -0.29495081079620
O           0.89850780001067    0.56662630736592    2.75737693606087
H           0.68006712906660    1.49266763302033    2.88560422891446
H           0.39797811582822    0.29184992663127    1.96064168518825
O          -2.69461558294433   -0.74697140761742    1.15396621999293
H          -2.60297696285738   -0.98075292746815    2.07998004257976
H          -1.82775078426896   -0.34553189119342    0.89747675565557
O           0.42330030822041    1.71387621989023   -2.13722122574123
H           0.86202301337497    2.50057841438909   -0.64588580346987
H           1.25255184128490    1.43157147297711   -2.53190387581497
H          -0.08629074670900    0.88959262372333   -2.02539353115287
O           2.77425336729933    0.80672735552806    0.84476219152017
H           2.31026277159916    0.58220303807084    1.67953291910963
H           2.15235418242929   -0.05124653962545   -0.18155865368774
H           2.38933032946364    1.67416297061573    0.58747734102913
N          -2.27694924772948   -2.44214318747438   -0.82363246466617
H          -2.00534566021163   -1.76178213743698   -1.56412991869571
H          -2.82953613483390   -3.22459631807869   -1.15573399316331
H          -1.27064482930950   -2.67660011809638   -0.46807383265407
H          -2.71775542563815   -1.89368600458111   -0.04090720295138
