    26
        -50.45569029  Gyration_radius:  2.49448905542 Dipole_moment: 4.709
 S           0.13835268667366   -0.40231938435192    1.02786152768299
O          -0.82878233700316   -1.49612886100915    1.12317004447552
O           0.17619830355938    0.35081651247027    2.28607790085555
O           1.51685061313373   -1.02250888179912    0.77076460703754
O          -0.20109829768677    0.48213198232598   -0.08834189723333
O           1.27162181310192   -0.78201258918636   -2.87786326326927
H           1.53371224211876   -1.37553477705923   -3.58349103893301
O          -2.48364985321930    1.66701588004796    0.44384952483380
H          -1.67273561078900    1.20399242172678    0.11766251530027
H          -2.25555005077389    2.59883214590423    0.46023670317661
O           1.26466394271218    2.39792986426370   -1.17206504401084
H           0.66366519257116    1.76390974257772   -0.72745384977941
H           1.04417366942287    2.34280863818984   -2.10487141026246
O           2.84496021045899    0.23217418964839   -0.95618820886806
H           2.40560675518229   -0.15608549699702   -1.74547757439417
H           2.50967751099853    1.15380649994586   -0.93034576158051
H           2.10569433004743   -0.47413777948677    0.10749960280373
O           0.07039404822481   -2.50622934222213   -1.18033053769732
H           0.84228761029281   -2.94248680653976   -0.81021487928503
H          -0.39654970217328   -2.13954755999903   -0.40634852320136
H           0.69648227214735   -1.30919878936591   -2.28128680184778
N          -2.30621334101265    0.08773330403151    2.54927553586350
H          -2.64550090516530    0.78047431831103    1.83310240619794
H          -1.25376044512042    0.33815343739820    2.70319972301170
H          -2.87964410976121    0.02579302352965    3.38308424792451
H          -2.16085655793904   -0.81938169242218    2.05849445118761
