    26
        -50.45569027  Gyration_radius:  2.49452959567 Dipole_moment: 4.708
 S           0.40761997432373    0.43980799975338   -0.93680660565434
O          -0.33091200094788    1.14629644909483   -1.98911392357421
O           1.21565811101319   -0.63172169498945   -1.51969053877396
O           1.36396327495231    1.42058254818143   -0.24803757252258
O          -0.51612021846734   -0.10364579946625    0.06051762688032
O           1.12862921900890   -0.19391752826434    3.03344670250180
H           1.78107508720260   -0.37694257381472    3.71143470188345
O          -2.25404981818210   -1.64928758266473   -1.15918504260722
H          -1.59362461765521   -1.16429701779067   -0.60508058895244
H          -3.09667819540215   -1.22737859073372   -0.97877723270718
O          -1.97523621976684    1.20608142525210    1.83491260299242
H          -1.52331604089782    0.70384926900164    1.12471263801347
H          -1.96420098742193    0.62624859287844    2.59997875559688
O           2.45960380905190   -0.98023360930600    0.81833279367707
H           1.48132464986848   -0.58821704177865    2.20590703039162
H           1.97291343415417   -1.00342264646631   -0.02672518682534
H           3.07307521575313   -0.24708689875326    0.72179747801248
O           0.51926960150238    2.20011621252116    1.98782631784720
H           0.99541141719873    1.80514082040186    0.64848622453353
H          -0.45777496856107    2.12334448978900    1.94346294729776
H           0.79488769275976    1.40691133553363    2.49932521483303
N          -0.71665602789027   -1.01446873950871   -3.20667595060839
H          -0.69144210044061    0.03914209068860   -2.91736273152019
H           0.20527518050128   -1.28839660407813   -2.80699206465250
H          -1.46137401216394   -1.44266950479044   -2.59849922857875
H          -0.81732144949301   -1.20583541068464   -4.19719436747721
