    26
        -50.46147056  Gyration_radius:  2.5916098802 Dipole_moment: 4.223
 S           0.40326831536885    0.04845121162521    0.62639398791436
O           0.51588773524164    0.03297941196511   -0.82534555930915
O           0.78337136950668    1.37354563211379    1.14605589329211
O          -1.13299336580642   -0.05011742929881    0.94973688894137
O           1.08734584821787   -1.04257262428121    1.27759481039715
O           1.25337217175569   -2.55686800242852   -0.92767255627989
H           1.45758979708380   -2.24989420052957   -0.02851310035306
H           0.99714054029086   -1.73333508233379   -1.36762058766734
O          -1.00857629995016   -3.84215670045838   -0.35096822449777
H          -0.18053077494026   -3.41437482341034   -0.67796579794152
H          -0.83103963126762   -4.78357423097930   -0.32603283050084
O           2.01212320913249    2.92296460887313   -0.69301050926444
H           2.84252599254692    2.52675792069868   -0.96110179889542
H           1.68122652525823    2.37785154724610    0.04861147229185
O          -0.23063634636854    2.25051883549924   -2.01215148180222
H          -0.01315948330519    1.31673132120434   -1.78019730166032
H          -0.99570670787303    2.55315911711958   -0.76691868027040
H           0.60928828456259    2.71735094799227   -1.82406433375713
O          -1.14803148476873   -2.40388698487369    1.89865133439878
H          -0.19552137309148   -2.26275665478272    2.01046698687661
H          -1.28168165424799   -0.97398219259072    1.33713337789209
H          -1.23936936236881   -2.99242187407623    1.11297878969694
N          -1.31367888368580    2.58060847281834    0.28745822037976
H          -1.56650203166753    3.51051371672907    0.60581706477016
H          -0.44673218904582    2.19002268926117    0.79357086148653
H          -2.05898020056727    1.90448534688203    0.44709305387467
