    26
        -50.45895653  Gyration_radius:  2.39177180719 Dipole_moment: 7.103
 S          -1.32953496278833    0.67692366805071    0.53470084884721
O          -1.04149582410130   -0.39462494290952   -0.44428467113605
O          -1.29829363097382    0.12120172863737    1.87587314553539
O          -0.14843325135572    1.69707251244412    0.39858733240380
O          -2.51013010808960    1.42004700139894    0.18703864002952
O           1.37670620197972   -2.07078406040725   -0.49949928401029
H           1.96613826277696   -2.78129015011264   -0.23982634393446
O           1.19197507990342   -0.27721568299500    2.83998847254429
H           0.28331547601134    0.02884497426076    2.65375962661720
H           1.10738913199672   -1.22496394372742    2.97304613994122
O          -1.65521639327083    2.38270453370623   -2.09463503515767
H          -1.96353496668010    2.12345119335492   -1.19003104603563
H          -2.43461455246828    2.33086615485609   -2.65144952410710
O           2.05126291642222    0.35672566816063    0.38731408543730
H           1.86388453492718   -0.52529110541494   -0.00879724168262
H           0.72930716905416    1.21737691470506    0.45639394462919
H           2.02217320190286    0.19703729227367    1.35449862082723
O          -0.52224728221480   -2.38919162396900    1.40232675575876
H          -1.26901720568578   -2.83560047455606    1.00018206494811
H           0.59058662442178   -2.14579602432111    0.08964481029787
H          -0.84499406317885   -1.48111095200622    1.59227739634041
N           0.40446112320987    0.71878114465182   -2.16170797854976
H          -0.27266001955308    1.51180165602959   -2.31120424259612
H           0.63644558157424    0.22295900991744   -3.01553872883287
H           1.24274504944248    1.03517404917968   -1.67647223985269
H          -0.17621808327113    0.08490146878829   -1.45218553826605
