    26
        -50.44930426  Gyration_radius:  2.54926687595 Dipole_moment: 3.607
 S           1.61215290278193    0.41293826795381   -0.25127806230055
O           3.10170209466485    0.54054421148048   -0.66895055982685
O           0.92853976301798   -0.36769716392592   -1.28493887382230
O           1.53414113417120   -0.23155504019548    1.04326118068737
O           1.08770800090744    1.78548893894805   -0.21318232419573
O          -2.03139769395857    2.02621339218017    1.59011522079672
H          -1.59500344343761    2.68458343212928    2.13420611147188
O          -2.41406819423931   -1.68805262812010    0.39641202291032
H          -3.32222590900527   -1.43315262902706    0.56955180251234
H          -2.14537638743658   -1.23458655062294   -0.41943705674433
O          -1.54396474813619   -0.15103225250858   -1.74851763501004
H          -0.55873148955916   -0.29865717299905   -1.56088620205682
H          -1.65404903507546   -0.31448454847971   -2.68698138609564
O          -1.25617766598121    2.22647465000034   -0.78011923981291
H          -1.51639850408860    1.35912814099494   -1.22110724863718
H          -1.65877403198022    2.20081917729782    0.19747139981437
H          -0.19552691653386    2.10337623772238   -0.59186693145554
O          -0.89037343080941   -0.20117553641317    2.12157061003877
H          -1.35499475233597   -0.89353452202618    1.61519821285006
H           0.03898672944905   -0.21273627904262    1.80746245951958
H          -1.61278400350744    1.13700037600453    1.84937631073104
N           3.16296026867927   -2.05026854208951   -0.38466525983966
H           2.48014357015422   -2.27932445221017   -1.09662453660973
H           3.39490445004342   -0.40833767320611   -0.64753888549281
H           2.64489057153240   -1.86023462282581    0.46847429049962
H           3.76371676069305   -2.85173719100403   -0.23700540992078
