    26
        -50.46255570  Gyration_radius:  2.40945913679 Dipole_moment: 7.222
 S          -1.53469721043851    0.98871748327324   -0.20965274978568
O          -2.40683607338144    0.10513300510431   -0.99200973878785
O          -0.20646496838642    1.04047647351914   -0.84144814346541
O          -2.08389999065342    2.27239479819335    0.09123966521077
O          -1.32462647583446    0.26390357133515    1.17683546774242
O           1.56196127983719    0.90299700407130    2.62084312263765
H           2.16921617901889    1.39848762885150    3.17193917851367
O           1.76589721805405   -0.32578423394844    0.25819651505489
H           1.89825494427065    0.05845037351344    1.14984972307385
H           1.09708801515073    0.26921453951801   -0.15062611539495
O           0.95226061851179   -0.49189727174353   -2.66335751974342
H           1.77208353558591   -0.64509169240313   -2.18326745491144
H           0.52481647401019    0.25693972889156   -2.19389995881162
O           0.21657976156298    2.82512625044352    1.29887922692553
H           0.69187246605875    2.88069022451170    0.46554913162077
H          -0.71359129774624    2.69747040790837    1.03279217346534
H           0.94105541028261    1.56697651483892    2.24497500596212
O          -0.01544365979525   -2.08969063912562    0.81294384420349
H           0.78167166048036   -1.50436354175806    0.60489460009167
H           0.13052504313088   -2.43779997906116    1.69376386620574
H          -0.93643136299483   -0.62206580874166    1.04395757284456
N          -1.05693704447038   -1.92043718057785   -1.70085391113099
H          -1.70633475834675   -1.06391202546418   -1.44474683336033
H          -1.55386039677361   -2.60232108320602   -2.26269879282378
H          -0.23095022881083   -1.50392082899174   -2.21456164725407
H          -0.73320912941610   -2.31969371886956   -0.80953622598588
