    26
        -50.45234043  Gyration_radius:  2.54415168392 Dipole_moment: 2.491
 S           0.77767990932091    0.14797284617012   -1.38596750036618
O           0.53889824868656   -1.27264167200947   -1.18319122441276
O           1.40136430696383    0.35512289639437   -2.78986753081211
O          -0.51015853826334    0.87959418316690   -1.38393597553639
O           1.68950250342472    0.70842321297212   -0.41138370727415
O          -2.10073252867374   -0.59224616624359    1.71354557794420
H          -2.73778583961860   -1.08448739413508    1.19396991721538
O           0.34018929843223    1.97145713127594    2.64605616452518
H           1.05655612305182    1.32082060533473    2.46558055526894
H          -0.11108050854932    1.66717885270826    3.43681747770769
O           2.10678520664386    0.06443528732029    2.03440951394448
H           3.04537026302704    0.13577773959021    2.21521978728840
H           2.00095906705425    0.28030965255733    1.06783178506220
O          -1.38322191067576    1.65213957292341    0.76495324831565
H          -0.64070435658463    1.90200060125675    1.41336179694765
H          -0.95825043248482    1.37213386384273   -0.20914189208035
H          -1.76819947770674    0.77565900185251    1.14307845243908
O           0.14924403589408   -1.81685927068555    1.37382605750913
H          -1.24013298880622   -1.10974100284940    1.65461560379952
H           0.30617812139745   -1.73112828904888    0.40692158801985
H           0.88232404286034   -1.34355297557161    1.79271261842186
N          -0.67195325895240   -0.92417428051899   -3.71382418554546
H           0.72268812816101   -0.07042970843155   -3.37954972561556
H          -0.51626956023918   -1.48959357381025   -2.88366031446964
H          -1.42056537592401   -0.27622422037032   -3.50407655857421
H          -0.95868448840719   -1.52194690365730   -4.47830152969756
