    26
        -50.45514732  Gyration_radius:  2.45715260812 Dipole_moment: 5.616
 S          -0.90044377058486   -0.89159849385151    1.50761792303309
O          -1.12309590757483   -0.59650163937024    0.11771087243842
O           0.38295013570134   -0.14232947418989    1.96085857609507
O          -1.96288982387448   -0.54962242527430    2.40042219187194
O          -0.53843246527541   -2.37064219704035    1.66238271365084
O          -0.47413587073230    2.67047846448252   -0.47327471531036
H          -0.49260236875476    3.62877498006030   -0.48854986176539
O          -1.13432653085893    0.60646580624223   -2.25299145228921
H          -1.42699582772124    0.07522184875303   -1.49423614833425
H          -0.95772110600888    1.47506214120465   -1.86070753272025
O           1.18093170268117   -0.62376207052990   -2.22622521975841
H           0.27574523088046   -0.21337541627430   -2.32290520714826
H           1.64381924592967   -0.44704289158718   -3.04650812970287
O           1.56450842310989    0.91223418351559   -0.02044339940351
H           0.89622638459081    0.25319979864873    1.16457327143261
H           1.50944952360750    0.30263809079053   -0.78455079474438
H           0.92744187519074    1.62532695546674   -0.22042211550835
O          -1.51774174745586    2.04884514652800    1.90635208758041
H          -0.79689194216745    2.12019418977463    2.53755863999538
H          -0.96058003801802    2.39986847406508    0.34086363423267
H          -1.89671488155487    1.16448232032220    2.06086724220287
N           1.22330341321194   -2.70380382022891   -0.15622020231131
H           1.03476317422379   -2.03180341785832   -0.89838916692604
H           2.13960123034356   -2.50749294187861    0.22584623113953
H           0.17485502138373   -2.57168759014980    0.91609477177118
H           1.22897692991282   -3.63313002267320   -0.55572421016279
