    26
        -50.46195501  Gyration_radius:  2.47315098467 Dipole_moment: 4.187
 S           0.46834038398074    0.45712158883250   -0.69927674665669
O          -0.81380724665585   -0.02782438265722   -0.14638342588735
O           0.15601998260530    1.80574685872928   -1.39680966200037
O           1.38630054929822    0.75792592769980    0.38609128273077
O           0.99954535351566   -0.46995395103119   -1.67634198773354
O          -0.76376968442022   -0.37524430094285    2.33500509551254
H          -0.92135583975090   -0.30729258008849    1.32065351705302
H          -0.48527519978207    0.63309664840085    2.56446630364584
O          -2.49464133904053   -0.50118097049050   -2.15808431406839
H          -3.33670218243947   -0.13172021106688   -1.88796911057317
H          -1.90227021861887   -0.43470721309420   -1.38115224693016
O           1.09439568640029   -2.68378231268985   -0.22375576400168
H           1.67732036727383   -3.29750511968619   -0.67442627521753
H           1.01953330589708   -1.90039232502716   -0.80856640962687
O          -0.53313017648933    0.66190485122866   -3.57789012252183
H           0.15215133392595    0.01850847022268   -3.34266937603259
H          -1.37377919552685    0.24122272413857   -3.30335959371745
H          -0.14963338510247    1.53310870773270   -2.31426772017926
O           1.52323687043230   -1.33460844863479    2.02394923882074
H           1.40617480399613   -2.03664276927906    1.34684314519549
H           1.75161338624079   -0.54368902543616    1.49277419885027
H           0.15354661540833   -0.89455314950614    2.35993172673279
N           0.10745457914767    1.99268686759025    2.50963902156709
H           0.69510104830499    1.80655403746215    1.68836701569177
H           0.70347808807452    2.27692835098160    3.27616402430061
H          -0.51984785668105    2.75429172660160    2.28706819504753
