    26
        -50.46255573  Gyration_radius:  2.40918674298 Dipole_moment: 7.226
 S           0.90206843014909    1.15919387334110   -1.10508780377197
O           1.75483379654248    0.06774771895708   -0.34752407246200
O           0.65693554436636    0.61287125390741   -2.44478532683843
O          -0.37448782199457    1.24749760061915   -0.37783691058194
O           1.67328333021953    2.36086529619871   -1.07135728051592
O           1.29109199917282   -0.00479176407729    2.90798373094007
H           1.44415081994853    0.26031908818913    3.81596037394991
O          -0.89282832518360   -0.55985445519725    1.47450779652826
H          -0.72375589940685    0.18827763125907    0.85789325829589
H          -0.20495067827087   -0.44746946809385    2.16333943595985
O          -2.74632141427319    0.15644767278685   -0.82001247846527
H          -2.00227586345507    0.78978642281869   -0.72470385021357
H          -2.87546519435047   -0.20339908991823    0.06311771395738
O           1.35371964628307    2.32888091331291    1.56571764018067
H           0.42214807473323    2.55439765946972    1.49701771879612
H           1.47016008365110    0.79495036673548    2.36377851953539
H           1.67601887211462    2.37400818594031    0.64576777537469
O           0.31458532397311   -2.22005131146053   -0.06765524441189
H           1.27833320046409   -0.78409845050895   -0.32473452219177
H           0.86812672592745   -2.80662057936483    0.44986168578725
H          -0.22678036182993   -1.68342720652701    0.59582198836460
N          -1.02882208674436   -1.26990535751797   -2.24098535455123
H          -0.58068660311449   -1.92719679034568   -1.58847161849258
H          -1.85559858043533   -0.81491289202733   -1.76224270318013
H          -0.30400099648228   -0.45415402041899   -2.41396252814022
H          -1.28948202196348   -1.71936229789702   -3.11140791386773
