    26
        -50.46255563  Gyration_radius:  2.40937355517 Dipole_moment: 7.221
 S          -1.74673572775342   -0.15438286647472   -0.54998034631729
O          -3.07776040479614    0.15375785237555   -0.13340137291930
O          -1.63494641795535   -0.76260557285390   -1.88077302705457
O          -0.81399740204905    0.98023327200027   -0.45676119574899
O          -1.20862757733667   -1.23913883236239    0.46278578030631
O           0.17538010094078    0.00521188825795    3.17644927188466
H           0.18289244412935    0.35150013092404    4.06968457117080
O           1.42263116234854    0.66519701682516    0.90906107470014
H           1.15298506466329    0.48663798490291    1.83405758925211
H           0.57250599159821    0.87249679397852    0.45880349914615
O           1.25641550030537    1.70211793557038   -1.94061250117191
H           0.37900330770311    1.65967008614954   -1.50220396364108
H           1.88464447695423    1.81151123448133   -1.21989682224081
O          -2.01099704942800    1.14049848511113    2.08992060414029
H          -0.69463899069775    0.26467192134721    2.79745212600561
H          -1.64755484620285    1.90231604013945    1.63065945526397
H          -2.53197981739566    0.67836488251302    1.40618642146197
O           1.42196704892465   -1.73356474501945   -0.00631995423331
H           1.69053701779160   -2.34680963730021    0.67927744407500
H          -0.29032870970616   -1.48688787563293    0.24229473660154
H           1.56567983461220   -0.80706048399508    0.37087541779042
N           0.81917718863015   -0.84474718157169   -2.51205097953085
H          -0.26830558297158   -0.83076979833142   -2.31690127503501
H           1.02268993225259   -1.23694737862940   -3.42438467250185
H           1.13305614353800    0.16242940021752   -2.43034385164763
H           1.24630728161124   -1.39370058247615   -1.75387802992717
