    26
        -50.45514638  Gyration_radius:  2.45798433099 Dipole_moment: 5.602
 S           0.68718509475106    1.21472232035365   -1.38770342776597
O           1.91308006599449    1.91650859217206   -1.60564800192814
O          -0.18931228928814    1.28625929082563   -2.64041163992289
O           0.80898494167621   -0.15527614380192   -0.96738890265236
O          -0.13216910486660    1.97938768081389   -0.31209284327972
O           1.39353627949620   -0.28352558243769    2.36051133740591
H           1.77620522278461   -0.20534963898021    3.23593018308435
O          -1.63291382388714   -2.00239403006590    0.22758705849643
H          -0.66306491956713   -2.23089068322405    0.29370626681278
H          -2.10324348214780   -2.69412563516116    0.69520521423232
O           0.94851820833889   -2.35273113234648    0.52235186866613
H           1.11757771263257   -1.72063027699464   -0.19559853275792
H           1.17816119054917   -1.85031051034242    1.31885294786630
O          -1.07947151905382    0.37777414046696    1.41104489227286
H          -0.55954117193209    1.34054691099437    0.36868295115023
H          -1.37288313164480   -0.43866509715039    0.95729757109614
H          -0.25134963559948    0.12963736305384    1.86612585813926
O           2.43905344108040    1.77760401870759    1.02014687577728
H           1.84716115374744    0.39077131941333    1.80175279240778
H           2.46496788579718    1.76818652749359    0.04601929207722
H           1.89857023948077    2.53982802685149    1.24357109706854
N          -2.16921753562544   -0.20844128469770   -2.03236991792184
H          -1.84671372080468   -0.88860752285204   -1.34588411538436
H          -1.01673788960599    0.66556834094140   -2.45071131126290
H          -2.55795047023403   -0.70661091127550   -2.82215058836355
H          -2.89843274227443    0.35076392683223   -1.60882693541590
