    26
        -50.46742656  Gyration_radius:  2.40212125351 Dipole_moment: 4.780
 S           0.68837538151968    0.68501283003600   -1.42121454887162
O           1.10583408611968   -0.68333658595094   -0.75935954087226
O           0.64280489755599    0.33936090509125   -2.83993986635162
O          -0.64559563691695    1.00277344742005   -0.91207745706682
O           1.66166833285039    1.68650785598120   -1.05985225959114
O          -1.19218707833070   -0.84577491910859    2.11889918970263
H          -1.74268880776348   -1.04195529075151    2.87759249263662
O           1.55342410211660    2.23059836259905    1.47931611101606
H           1.58367062861137    2.09385313306964    0.49579883273299
H           2.28470696628336    2.81579057720952    1.68245814991296
O          -1.89381066021557   -1.23991001663841   -0.55195764450855
H          -1.65369980285621   -1.39736887690222    0.37707613183973
H          -1.59267760960799   -0.31171866726375   -0.70896598939405
O          -1.17325925076985    1.71992093766001    1.59019684661835
H          -0.31205604380058    2.09469246134703    1.82365888173685
H          -1.12108044368949    1.60481769602060    0.61972228110903
H          -1.27321310876629    0.13779402628399    1.96273077582205
O           1.49773348413894   -0.46737592733051    1.76316290362700
H           1.57217348271835    0.50191597888201    1.85735885997766
H           0.59617582895039   -0.70889729675909    2.04303275580778
H           1.32883652805590   -0.59158989068412    0.22090508067738
N          -0.39232240133219   -1.95992933859892   -2.55319444740957
H          -1.04151321961233   -1.79720883873224   -1.70542227792350
H           0.37229559334778   -2.56998244532412   -2.27841660561834
H          -0.89814024694280   -2.33154493206770   -3.35108088248514
H           0.04454496833667   -0.96644522548804   -2.77042778311946
