    26
        -50.46742661  Gyration_radius:  2.40210883889 Dipole_moment: 4.780
 S          -0.82663351740779    0.68819218242459   -1.34421338230630
O          -2.24997150370871    0.51755697971775   -1.18283552479525
O          -0.14298681361021   -0.73167494568585   -1.30846361796135
O          -0.40089325629845    1.20189757249904   -2.64384353065988
O          -0.23608417716117    1.46126868763321   -0.25174446797813
O           1.20994588642667   -0.81578333305257    2.12083062000471
H           1.64395220424430   -0.96688803297381    2.96106374790422
O           2.22533599635823    0.69076706651694    0.00395094254989
H           2.09488427712490   -0.01046407755862    0.66488100230273
H           1.34901379820109    1.14742066171954   -0.01674309610298
O          -2.83119920720360   -0.32979609852921    1.20440243901550
H          -3.76911633926848   -0.52596023114648    1.22281803157222
H          -2.65371104230603    0.05063508118285    0.30393090113322
O          -0.66801680885020    0.99875368653973    2.32767703770139
H          -1.53680950438728    0.57749278078250    2.26110246946952
H           0.54363727503081   -0.08792051198652    2.27797952225280
H          -0.52209020036216    1.37235523645983    1.43495399608637
O          -0.80619507093642   -2.08174881607079    0.76534193779474
H          -0.06023509940677   -1.80608812242232    1.32841737885854
H          -1.58865048860747   -1.58265409251773    1.06961626481777
H          -0.45311572668417   -1.29555761861231   -0.53070100806651
N           1.96998796884385    0.30069619537769   -2.55742487204597
H           2.19312057282877    0.38727465987224   -1.50415871895068
H           1.89645426960574   -0.68188948368753   -2.80543893534170
H           0.96162126159841    0.74244155030022   -2.67112817597883
H           2.65775524595149    0.77967302321901   -3.13027095128260
