    26
        -50.46742654  Gyration_radius:  2.40204215593 Dipole_moment: 4.774
 S           1.35455482344330   -0.18676020618858   -1.04509936036680
O           0.06286763267177    0.66407250337018   -1.34875249387292
O           0.99275874069942   -1.12754640510969    0.01491286249504
O           1.57189846946775   -0.87921769187987   -2.31298782517361
O           2.41064228699041    0.70890348289207   -0.64080376746563
O          -1.92341860884361    0.11463429654460    1.70618786767626
H          -2.56078567992915    0.03946965232222    2.41711832036324
O           1.89451781839242    1.79499878433607    1.66325169531422
H           2.15446911462524    1.35574026499633    0.81096590320666
H           2.57151260715516    2.45161398990465    1.83377910090667
O          -1.49961648250489   -1.75479180368296   -0.32108744448632
H          -1.90336350143632   -1.07255181766589    0.24192155489417
H          -0.53743149091134   -1.68495242635244   -0.10635133159222
O          -0.56310195431506    2.21485646873280    0.59183343700587
H           0.26460490009264    2.20821399571667    1.11015696853165
H          -0.14967982526419    1.32713013852789   -0.61778496296201
H          -1.17814023333754    1.60315616168940    1.03587425048634
O           0.49917932937457   -0.44153306019445    2.53275386729272
H          -1.04160625918245   -0.15225439665093    2.09296573636785
H           0.78053424541110   -0.85901251094381    1.69350036669302
H           1.02387286391422    0.37077092122883    2.57235066892351
N          -0.87004754162574   -1.35335658006399   -2.81528488902714
H           0.21659295868743   -1.20319828885851   -2.66764084676371
H          -1.24498489351217   -0.48473358228041   -3.18591074376404
H          -1.06176237363797   -2.13605464411248   -3.43278312458176
H          -1.26406695642575   -1.51759722627230   -1.82308580010111
