    26
        -50.46742648  Gyration_radius:  2.40207648539 Dipole_moment: 4.783
 S           0.69394294174881   -0.42669155231519   -1.51707288609785
O          -0.26507687445138   -0.20947486494862   -2.57263666860598
O           0.07205487082368   -1.42955449618019   -0.47184824185767
O           1.91798814109605   -1.11744669736871   -1.91526309982163
O           0.99607612870170    0.80284990490309   -0.78444258156138
O          -0.96058758818146    0.86414371606028    2.22712683690662
H          -1.24425136450938    1.32627588742258    3.01654731045915
O           1.66094203862027    0.12711350126573    1.62771076104736
H           0.78386661264653    0.17866326665357    2.04455683821069
H           1.51427942294298    0.53914713592066    0.74138313716216
O          -2.33917188755978    1.09369811007093   -1.70437381774193
H          -1.53747389206367    0.64810506853962   -2.08629826030542
H          -2.98527734799216    1.11571411862917   -2.41189803667758
O          -2.23358157509973   -0.67419668573613    0.35097573989083
H          -2.46248747343243   -0.00718269952316   -0.32480351965895
H          -0.86475323601914   -1.17466235254620   -0.19534905670257
H          -1.92521702188364   -0.18550907682308    1.13549104432243
O          -0.82988336427490    2.47915616212998    0.16900519373781
H          -0.89880358158434    1.55419419666649    1.50698124924494
H          -0.05385163526920    2.03904356768125   -0.23342911795047
H          -1.55028453746708    2.28195546249688   -0.44645129670065
N           2.52899103676668   -1.99101103243569    0.38807765149216
H           1.94199685538838   -2.80739679131394    0.53413755801933
H           3.50913030350165   -2.20286432224730    0.54647028595810
H           2.34711729406801   -1.63842442507567   -0.64487954774090
H           2.18431573348607   -1.18564508192790    1.02028251497293
