    26
        -50.46742653  Gyration_radius:  2.40202208521 Dipole_moment: 4.774
 S           1.22359059884683    1.16386080202465   -0.32986763105644
O           1.39214007215056   -0.12896157403198    0.55628843994535
O           0.04695824718039    0.94146008151401   -1.16999115404963
O           1.06228021675533    2.30123745667057    0.54279152001416
O           2.44878276269158    1.15350609075012   -1.12538625801505
O          -1.96843885551253   -1.62301491356215    0.33493411806026
H          -2.77350768727781   -2.14177717796875    0.34286959472958
O          -0.06117946561002   -1.59333053684269   -1.70100598502292
H          -0.62173409658571   -1.87789696013802   -0.95918976095061
H          -0.11767201817230   -0.60740014514633   -1.66169120527918
O          -1.19626730460534    2.19679868577617    1.82414056594026
H          -1.20430035696974    2.91465829190740    2.45907421415911
H          -0.35289059252617    2.30231782294489    1.30961573674524
O          -0.48791074001674   -0.38322237394913    2.27799071753941
H          -0.87041414659519    0.51536192582600    2.27118940862749
H          -1.07093099120888   -0.94141048955299    1.73206943910083
H           0.69400413695013   -0.19877580806573    1.28212567953796
O          -2.45118079511061    0.87890717500098   -0.27156169506206
H          -1.61530304185427    1.00846444990242   -0.76399772000993
H          -2.23388387290404   -0.70071501533166    0.05648457266007
H          -2.34213508211121    1.43165157732424    0.51541365894810
N           2.52482903669185   -1.35247953607345   -1.51982733077374
H           2.56038970795509   -0.25173376566862   -1.41089904915568
H           3.03871238128088   -1.66662238685379   -2.33705470229868
H           2.90263375708772   -1.75079067698728   -0.66488871249510
H           1.47342811947454   -1.59009300946500   -1.58962643183494
