    26
        -50.46195503  Gyration_radius:  2.47324506858 Dipole_moment: 4.188
 S          -0.51410641590255   -0.35809729087503   -0.72454461502169
O          -0.94141084697483    0.68213833630167   -1.63653531299293
O          -0.34834670788124   -1.68442284163996   -1.50954456482290
O           0.81230905337273   -0.05076508289909   -0.14931929890240
O          -1.46017044142391   -0.62798188015472    0.34471041198210
O           0.79789262457038    0.13926413922587    2.34945720919973
H           0.94811650258677    0.12016322455888    1.33183431518820
H           0.41204917467859   -0.84581401412868    2.51541445462390
O           2.53701830205445    0.36752852308243   -2.13612663304696
H           1.94003758453430    0.31525294670307   -1.36167708639504
H           3.33398037823259   -0.10722495730131   -1.89529998846923
O          -0.79977785784538    2.79514982945478   -0.04435529161065
H          -1.31443768579517    3.49497569054582   -0.45047084134943
H          -0.80873920814047    2.04759020338539   -0.67871864436798
O          -1.37226343851630    1.35710467676503    2.11440262172353
H          -0.05817237710709    0.75153369982211    2.41311701872653
H          -1.17977855649257    2.08480037058538    1.48312949285182
H          -1.68391108708838    0.63127447471569    1.53488070917433
O           0.46239709056718   -0.48230572874758   -3.61613646748894
H          -0.01409566007379   -1.38715550916867   -2.40925018868725
H          -0.14948704120574    0.21464240755042   -3.33543678377254
H           1.34337488115293   -0.17354432419554   -3.32025590909372
N          -0.32412540022242   -2.12725972541220    2.37725202404824
H           0.21730809547246   -2.93637032895957    2.10288439167185
H          -0.88740741232050   -1.82654138389486    1.57303053052881
H          -0.94825359021413   -2.39393544531633    3.12755843629187
