    26
        -50.45891849  Gyration_radius:  2.68187910694 Dipole_moment: 5.205
 S          -0.72489755029031    0.14072565107545   -0.79349096332869
O          -0.22459197476324    0.15383807531773   -2.16761266055765
O          -1.76876073910298    1.09987521158095   -0.55374201755157
O          -1.06772281655419   -1.20775039111243   -0.35239313675968
O           0.53588490850248    0.56941230784227    0.07373243124521
O          -2.06101184319385    1.54372974064440    3.24476892564193
H          -1.56200876283100    1.98245928592889    3.93572442436312
O           3.13259944204344    0.23190660152240   -0.63180375201373
H           3.47554356966040    1.09456754189534   -0.87173875098499
H           2.25678470206254    0.39180098645916   -0.22814143372034
O           0.52717374893368   -3.19603195079066   -0.81292274123101
H          -0.09583604500579   -2.46717313289131   -0.54936827908307
H          -0.03140049660415   -3.92005516828292   -1.09972476765279
O          -0.54015774496394   -0.36177034479374    2.15952335135271
H           0.22737106513405    0.28790997010718    0.99483211618533
H          -1.16047813070963    0.27408654721436    2.59154481528661
H          -1.06263530309171   -0.90171444279478    1.54933808475955
O          -1.96118117157599    3.12236342933208    1.09644781809170
H          -2.79755204688792    3.51926981034520    0.84614389750956
H          -2.06846107987102    2.16378941647529    2.47749814379681
H          -1.81755779556793    2.39741518276922    0.44532480284473
N           1.78629298035278   -1.40173382947053   -2.29480399037165
H           2.50905836290753   -0.90157068052646   -1.73513355575049
H           1.44956806629286   -2.24926656065231   -1.77131616435937
H           0.92321505114364   -0.73086705553720   -2.32987736745766
H           2.12076161396402   -1.63521620166217   -3.22280923025225
