    26
        -50.45891845  Gyration_radius:  2.68176686919 Dipole_moment: 5.204
 S           0.39758217658218   -0.44742423842492    0.90419217459593
O          -0.32592983423064   -0.19926712712654    2.12159552832855
O           1.84981321227031   -0.43977654153682    1.07647689021779
O          -0.05948941443007   -1.63761041124961    0.19352842032706
O           0.12535607920526    0.77134887360667   -0.07859060990892
O          -3.90622497297343    0.76945105547496    1.14254719067965
H          -4.34490675822547    1.54008168747176    0.77841023415258
O           1.89128961665643    1.78863761048277   -1.86778184403170
H           1.14326108425011    1.51645551538022   -1.30038402539087
H           2.19807963926013    2.62704136547688   -1.51808286397553
O           1.16495965788999   -2.45859512354027   -1.93614377711811
H           1.23200343999128   -3.41073562095770   -1.85016962097312
H           0.61433882584535   -2.15951207784377   -1.16399377224859
O          -2.15468122686629   -0.15237259459168   -0.64738955467533
H          -2.85044463477396    0.10717682294190    0.00400074597530
H          -0.81879595987791    0.56017629283694   -0.37336982195051
H          -1.79227950496463   -1.00133951071462   -0.35622330884539
O          -2.02832300091030    1.66485103318465    2.81253026807705
H          -3.25752477444001    1.11092276377295    1.80273086202072
H          -2.18540148043493    1.47327478095390    3.73897784165591
H          -1.33248950314478    1.02580229435011    2.53403352794638
N           2.92295657137027   -0.61340649782397   -1.22519473026591
H           2.36185130400834   -1.37838634334460   -1.67873255231660
H           3.91791305606911   -0.80604617540008   -1.24805098066072
H           2.69406164757566    0.30372122209068   -1.66364147393358
H           2.54302476430655   -0.55446906547016   -0.20127474768528
