    26
        -50.45365677  Gyration_radius:  2.50883131093 Dipole_moment: 4.121
 S          -0.03196445986217   -0.02109410086667   -1.18676418198741
O           0.47343500426937    0.68298229922908   -2.47205620916553
O          -0.55890466717874    0.97248473353371   -0.26929352268354
O          -1.04407553201157   -1.00042522054091   -1.55252457728847
O           1.15596617764541   -0.68068555214172   -0.61309243285612
O           0.23878363989757   -0.16083683388970    3.09221007865098
H          -0.70392721955242   -0.00519846332213    3.18391116898326
O           3.12060066518149    0.92313385274449    0.27000366466067
H           3.84592851987497    0.34453943289384    0.51050913497110
H           2.46698307418664    0.36693339780243   -0.19534248663913
O          -1.72925845549223   -2.42783843386399    0.47391846099176
H          -1.56401058100514   -1.84742351565683   -0.32366471011670
H          -1.91752593280196   -3.30171742786303    0.12494146635186
O           0.99331604802075    1.83797983745641    1.70142329119135
H           1.87968085989927    1.69469657088765    1.32233596271758
H           0.37784856215541    1.66660611162016    0.95748884702020
H           0.60623401277322    0.66822092151764    2.62274165330821
O           0.57689202748586   -1.98987179659855    1.43406164210650
H           0.46578158534876   -1.23888993236791    2.19484365797124
H          -0.37230798814377   -2.27131164513036    1.15807682201286
H           0.91721595660409   -1.48373975026002    0.59199030465267
N          -1.97165828676859    1.54044397682134   -2.67592213291586
H          -1.89269206821112    1.71666055225927   -1.67886988264362
H          -0.35331073986797    1.13032760348634   -2.79630072607601
H          -2.41564066033846    0.63631402443962   -2.78088339629950
H          -2.56338953211257    2.24770936780684   -3.09374190692141
