    26
        -50.45365694  Gyration_radius:  2.50880567511 Dipole_moment: 4.123
 S          -0.13049895793689   -0.05865223164816   -1.17852128132577
O           0.31821315253299    0.56064282072498   -2.52698114457903
O          -1.23773891400570   -0.97032923931725   -1.42371573884648
O           1.04911244795981   -0.78655814240144   -0.67449934950020
O          -0.50675428182125    1.00278457853530   -0.26295487340756
O           0.48003483349925   -0.07402298856800    3.06791226618216
H          -0.43798630085215    0.15545721645226    3.22894595870741
O           3.19052415907902    0.69397159175301   -0.01652385626172
H           3.88937503172111    0.07097746353307    0.18895717254889
H           2.46217565034178    0.17288396114896   -0.40536046955562
O          -1.85726083690522   -2.27151408157633    0.70634242730845
H          -2.13693673101346   -3.13997438645954    0.40884759575283
H          -1.71593527084783   -1.73296817264961   -0.12447372869243
O           1.26034865427000    1.81400681136313    1.54291762256606
H           0.57502652797949    1.66487461326175    0.85759952215676
H           0.86654642085455    0.70852932527951    2.53781525964265
H           2.09976858068770    1.59168817842975    1.10040148845921
O           0.54578639967281   -1.97843455116458    1.46228379153866
H           0.85207578322928   -1.52830891057173    0.57645314499303
H           0.55285401790598   -1.19597183817502    2.19902084170181
H          -0.44092956815571   -2.19579571105327    1.27390698964978
N          -2.06673823978744    1.59291679524586   -2.57121744513551
H          -2.58041777940612    0.72070005440094   -2.60211142534986
H          -2.63952556883414    2.32607463518089   -2.97032623813209
H          -1.89371462802369    1.79901787600934   -1.59198042496687
H          -0.49740458213490    1.05800436225126   -2.80273809545590
