    26
        -50.45558055  Gyration_radius:  2.44445489092 Dipole_moment: 2.117
 S          -0.85368379062712   -0.57050029261912   -0.96175775506042
O           0.27946355437938    0.32029017536404   -0.65484106488195
O          -0.33395582101368   -1.87856642012547   -1.36308077730544
O          -1.78525065999433   -0.64393776928609    0.14110408268844
O          -1.56742085052836    0.03276760933435   -2.19425281603295
O           1.56951046231559   -1.58936075053635    2.07220986054596
H           1.35988119681996   -2.30137236256961    2.67961816713014
O           2.63564593338836   -0.28393410848974   -1.55701068009992
H           1.77359464569749    0.09227833575361   -1.24203021975794
H           2.55741587219419   -0.37244799928234   -2.50898093845199
O          -0.00410630486115    2.38667305439186    0.94076321313972
H           0.85600253461002    2.80032123490037    1.03059626115238
H           0.11626294097105    1.64610639611771    0.30395789070619
O           1.84954353289135   -2.36165522254071   -0.31430267750877
H           0.88466181516210   -2.25909592614633   -0.75380096643588
H           2.36672126839642   -1.61353523075794   -0.78218651563855
H           1.75196689412492   -2.06049618272851    0.68056447383214
O          -0.45721241681889   -0.00560530602639    2.32870659133584
H          -1.04051793455150   -0.31081280408057    1.60139474199780
H           0.82180676232716   -0.92173261453052    2.16829719567356
H          -0.28840606638530    0.92807421103008    2.12331093284845
N          -2.54322167279428    1.92126534192446   -0.72119428538612
H          -1.99903111171783    0.85567657925638   -1.79124068656990
H          -3.36420523605012    2.49289935015810   -0.87430745432113
H          -2.76553996223498    1.19682991510210   -0.04463669941160
H          -1.81992556569094    2.49987078643663   -0.30689987418356
