    26
        -50.45725993  Gyration_radius:  2.58675214271 Dipole_moment: 6.904
 S           0.70183237796740   -0.48305064576426    0.57563645679380
O           0.27768476941012   -0.98292642791191   -0.76361574350393
O           1.56151760378871    0.67090054571757    0.46432535322067
O          -0.63793231252217   -0.06485605999988    1.26554082893863
O           1.22976254253044   -1.56688361678421    1.36906734463868
O          -0.53846248736636    2.40410553411349   -2.19377550417026
H          -1.05619813955009    2.19891085646542   -2.97264048854024
O           0.99083122112087    3.17317877476478    1.22596665045262
H           1.42467582565189    3.71918927409896    0.56725942621478
H           1.30697877225161    2.26056915311191    1.07110990846486
O           0.07690705164305   -3.86690770658933    1.62265046845053
H           0.58799653168615   -3.01566708593139    1.67906309800048
H           0.69111102774746   -4.51092426248963    1.26559475708922
O          -1.33582077872534    2.17380063024265    0.36125011400369
H          -0.94036235777720    0.85533238109368    0.90012754707180
H          -0.64948901806856    2.72419470231813    0.79743228200013
H          -1.13364461747814    2.24770249070610   -0.59761942230008
O           1.59014599338893    0.80754028452655   -2.23882717645465
H           2.05757463474782    1.07180421991285   -1.43600571878279
H           1.10282469958738    0.01832764985884   -1.94200881427331
H           0.29403168624353    1.87720879403659   -2.26898419667657
N          -1.56599552063045   -2.36979448500538    0.23712026399438
H          -1.83142505186868   -1.65623096670599    0.92326705673526
H          -2.35747595358752   -2.69804604564486   -0.30627433240769
H          -0.79287689631522   -1.84232926635341   -0.35594833747632
H          -1.05419159388209   -3.14514873179048    0.75028818849967
