    26
        -50.46336468  Gyration_radius:  2.46259500727 Dipole_moment: 4.769
 S          -0.48468601576450    0.64487871292807   -1.19468395100581
O          -1.59509705082976   -0.08016519379878   -0.56114679997974
O          -0.27858275015284    0.25675678111688   -2.56299174583519
O          -0.85694247045598    2.16360096061510   -1.16166920122726
O           0.72998631299950    0.48202112412931   -0.38929002026841
O          -0.06466593962306   -2.13206728303377    2.30942451248466
H          -0.47548105834506   -2.63325628432078    3.01563915781608
O           2.02913796585389    2.84757100825571   -0.83914584272532
H           1.68933346766612    3.16933028773470   -1.67575331750980
H           1.73252471495014    1.92625051264492   -0.76693024853033
O           1.37650429467518   -1.72011488253100   -1.94787384137015
H           1.95474773977415   -1.19582517461069   -1.38367788212754
H           0.81444832591468   -1.05199387611338   -2.39823936362745
O           0.11717628299684    2.38057342694700    1.30715671598433
H           0.51231104544768    1.57575780755212    0.91006397349796
H           0.79436104807632    3.05838451402379    1.20499810035996
H          -0.69224997945330    2.45335868762062   -0.23729591282962
O          -1.43393659665639    0.12033273159627    2.10796143377049
H          -1.62663737686054    0.08695996164298    1.14934967347748
H          -0.49843028975113   -1.24051455129095    2.32138875976519
H          -1.01409890284647    0.97490341752818    2.25503922156390
N          -0.55094559051183   -2.45244378022472   -0.29096308069612
H           0.29399836058709   -2.33216406568252   -0.92274348893994
H          -1.11062482818032   -1.55884902348466   -0.42471563409444
H          -1.09304709648717   -3.27030282687631   -0.54873253840173
H          -0.26910362301286   -2.47298300238097    0.72483134043783
