    26
        -50.46336467  Gyration_radius:  2.46259776185 Dipole_moment: 4.770
 S           0.65361136113735    1.28463552355621   -0.02487638741808
O          -0.44719356369446    0.56823063725853    0.62757823786690
O           1.68619924399113    1.65318483020260    1.09047403892509
O           1.34035193868955    0.38294677250071   -0.96048844590343
O           0.20815317731736    2.49884798738461   -0.65144027335125
O          -0.78583582850635   -2.81620805999969   -1.15532636595232
H          -0.61054538542599   -3.66672924378428   -1.56102571212283
O          -0.53281861695278    1.77501300262160    3.08145796956421
H          -0.69098684674289    1.42038875312388    2.19193615108696
H          -0.13490121577561    2.63787117465777    2.95476685050346
O          -2.13145986059390    1.48619392222841   -1.37683635724418
H          -2.36660519560096    1.14307166532661   -0.50820170373286
H          -1.35324013263582    2.05998565064307   -1.20292680796723
O           1.45349977829043   -2.09748182429389    0.05201043017226
H           0.01039015842164   -2.61042002908681   -0.60139191605327
H           1.54996523012481   -1.20675527470749   -0.34099022547841
H           1.48563427616362   -1.96168847695091    1.00525629223815
O           1.07559750184238   -0.56467466027777    2.43187298862998
H           0.33011623726750   -0.38088826947320    1.82189488268265
H           1.73085944322599    0.86558604928777    1.67630852159484
H           0.78294008489274   -0.22001189057986    3.28274886195459
N          -0.66241310177025   -0.46204832617404   -2.39789432006313
H           0.23725098810977   -0.12682199161363   -1.94202867749828
H          -1.39323387684560    0.24488310105404   -2.09165588085337
H          -0.57603500755985   -0.49172670572567   -3.40827717644921
H          -0.85930075737752   -1.41538433717318   -1.99294494513027
