    26
        -50.45589999  Gyration_radius:  2.51649237958 Dipole_moment: 0.998
 S           0.44688507271992    0.27739264395294   -0.78043298217837
O           0.19867374422871   -1.06646003527216   -0.19435456887179
O           1.07901744504579    0.06068115508417   -2.15479112100511
O          -0.81495521856557    0.98948744984227   -0.93370430393386
O           1.39882342777265    1.01106049366167    0.03676596776787
O          -0.82423476059533    0.62589945066584    3.01879681503722
H          -1.75606937065382    0.40089465464391    3.03777670167672
O           2.91291737938740    0.03223658039781    1.89773806168376
H           3.11277121389620    0.76386547235784    2.48521033193334
H           2.49316843126735    0.42659925425895    1.09115597467777
O          -2.32607326755182   -1.18173696805317   -1.27470599736990
H          -1.68425832523520   -1.68496666974373   -0.76015353226936
H          -2.03155812916913   -0.26016051888618   -1.15502391660991
O          -0.58314908485725    2.48776677058765    1.20930812455086
H           0.36195326078381    2.62019103016576    1.08171219566250
H          -0.85308037987288    2.02879190588609    0.38449714504781
H          -0.73729468682807    1.39052360459619    2.37901722511898
O           0.71524953402478   -1.22510892771212    2.19216155398395
H           0.08887323032466   -0.51530363721891    2.59356456248246
H           0.48131418866835   -1.22284190687819    1.12066026993672
H           1.65599817999630   -0.82948122202730    2.21460977992295
N          -0.71898004008093   -1.07089186876109   -3.56736207643382
H          -1.46909718082013   -1.23110085283814   -2.88488175109345
H           0.36487158752890   -0.40534863464908   -2.76412292950655
H          -0.44364827080573   -1.95464033118383   -3.97395553687591
H          -1.06811796923115   -0.46734889281309   -4.29948599303556
