    26
        -50.46243689  Gyration_radius:  2.53543628554 Dipole_moment: 5.578
 S          -0.58384621355779    0.84711955428320   -0.44947790475047
O          -0.88822201158905    1.15765991957079   -1.94133340182076
O           0.71663155751737    0.14025490573586   -0.42270913169986
O          -0.49777428872097    2.08684722877226    0.29966098698759
O          -1.64852497974896   -0.01825997160196    0.01188753009442
O           0.37179049217315    0.17567845845854    2.15199113902048
H           0.68890294829813    0.09703256899468    1.22306882677505
H          -0.17341796930609    0.97079082568985    2.12024074268530
O           2.01172793787880    2.61237360922986   -0.28144072840054
H           1.10192034733756    2.57794182505962    0.08716398557061
H           2.27922922158123    1.68819955980258   -0.32105511952543
O           0.68779447820970   -2.33566529820037   -1.28757769191900
H           0.77269519735276   -1.40451021792762   -0.97047858981700
H           0.66862430311619   -2.28240418449482   -2.24447033630215
O           0.85576601545114    2.96680627723304   -2.62314992262337
H           0.41195053271488    3.81608073581224   -2.57226504565073
H           1.44021634761501    2.91583891125137   -1.82361664764462
H          -0.22193743450287    1.82427193407259   -2.26888815764025
O          -1.58467721013744   -2.58749240649898    0.03240343034884
H          -1.79566880639372   -1.62544845040754   -0.09452091586396
H          -0.76609386887435   -2.70856989929350   -0.50698973527258
H          -1.14019483165406   -2.44701547906936    1.36530847760889
N          -0.76629719617592   -2.19683963612264    2.40798705798619
H          -0.35097184892956   -1.21554466542648    2.34640063992046
H          -0.04827362931770   -2.85248630162286    2.69905720932009
H          -1.54134909032682   -2.20265980330626    3.06280329261311
