    26
        -50.45590002  Gyration_radius:  2.51660040708 Dipole_moment: 0.998
 S          -0.46234216419044   -0.21506935932764   -0.79029128906540
O          -0.60216531439783   -0.84879104974817   -2.17372647460401
O           0.78938889039474   -0.74661763030311   -0.18855513002802
O          -0.36824839544627    1.23238850422778   -0.92697911589343
O          -1.61004039117933   -0.62076466588831    0.00362511170674
O          -0.12762957530051    1.00018787663587    3.02824091403436
H           0.56853190811952    1.65832326476286    3.06735836999218
O           2.28089444283655    1.31769829928510   -1.22319036451957
H           2.34470837104266    0.50009985391366   -0.71586166370678
H           1.34592097006476    1.57215821156078   -1.11592199338102
O          -1.64709234857141   -2.44470063879276    1.84417323106290
H          -2.37924549895704   -2.21974638654506    2.42182416502464
H          -1.73515474218718   -1.86896329776501    1.04238202271789
O          -1.78720052901808    1.83454150747736    1.19801163523182
H          -0.80425504053767    1.35170157796664    2.38016438188962
H          -1.24118655357961    1.81775585148417    0.38230370769050
H          -2.41261043635812    1.11713846325237    1.05266796982360
O           0.59985060438295   -1.29071427869784    2.18923902595020
H           0.74376693294441   -1.08198216482672    1.12144648234085
H           0.33902764185575   -0.38320341429045    2.59576405333086
H          -0.24456918031684   -1.86393725745108    2.19123596328450
N           1.34919996146190    0.05613903349389   -3.54479087922114
H           1.88130224673769    0.58995152412910   -2.84762197102057
H           1.04448625578421    0.68602214297840   -4.27453098945506
H           1.94656399415036   -0.65157529496163   -3.95023604364445
H           0.18809794029324   -0.49804067247817   -2.76673110953045
