    26
        -50.45589999  Gyration_radius:  2.51642345701 Dipole_moment: 0.994
 S          -0.70560081387296    0.61012889211259   -0.12191610268850
O          -0.58333542987392   -0.84467417835010   -0.40405199702236
O           0.12337255048483    1.36927838284547   -1.04313526606830
O          -2.16211061353386    0.99773424469684   -0.37425772648014
O          -0.36806058967381    0.87293787809579    1.27084371634637
O           3.14598948841440   -0.52677611676782    0.07084187192710
H           3.25825847722290   -1.04672031532882    0.86858239028513
O           1.21822921744069    0.48815700401222   -3.22027225813260
H           1.97399357292918    1.05635819400337   -3.38247667696965
H           0.68951562332105    0.92225703773773   -2.50318952805160
O          -1.14938991854954   -1.50002914897173    2.20498483054534
H          -0.96838808950497   -1.87942205705630    1.33708552283494
H          -0.77627431348280   -0.60202739978839    2.13591868219720
O           1.46311125932653   -1.46072850781875   -1.59529042610341
H           2.19278991270638   -1.13718000462241   -0.94719712023029
H           0.52063576891356   -1.24693857891486   -1.07611497964077
H           1.44572802725801   -0.79561812010340   -2.36935462858491
O           2.07729486152647    1.72426012293369    0.83903591848485
H           1.20963639645997    1.44257236563847    1.20181405901115
H           2.80442990737198    0.36559278988451    0.36822987327195
H           1.83182838082327    2.19538958339876    0.03609658618346
N          -3.51799934274176   -0.24010607747286    1.39681111309221
H          -4.24923104954582   -0.83487024267113    1.03126180686053
H          -3.91698937576872    0.38739470484333    2.08178981088864
H          -2.80636296319491   -0.82105359492825    1.85532123150291
H          -2.75107095447728    0.50408315258096    0.33863930655800
