    26
        -50.45916071  Gyration_radius:  2.55284013143 Dipole_moment: 4.813
 S          -0.85051769510559   -0.03494379518740   -0.88927166102859
O          -1.31817880557083    1.26242467079644   -0.46359272311720
O          -1.89758340077878   -0.97610343229433   -1.25829489789157
O           0.16977709124104    0.05503303114459   -1.95050666312727
O          -0.12651288929077   -0.71453452390975    0.32524888937513
O           0.33995401584028    1.91120306690166    3.13191459496918
H           0.34101578809843    1.36155319265352    3.91698877507520
O           1.17955280222056    2.34252070866100   -1.00100097232765
H           0.96030936431185    1.56227576125974   -1.54263488595343
H           0.31758411608845    2.68340084869550   -0.73824047969424
O           1.06946484966919   -3.09416114802312   -0.11007915521470
H           1.99134577218264   -2.93597435707260    0.10311477657086
H           0.57823302371053   -2.32344646652382    0.23968405952698
O           1.68442601002313    0.81097211990214    1.11283130142798
H           1.69077739357475    1.47544651245099    0.38299631612361
H           1.29236291552860    1.27252933439585    1.89313806701963
H           0.63873557139546   -0.08395172962249    0.67901197287231
O          -2.08372765006228    1.62407860994850    2.03407949388729
H          -2.66906777556073    2.38211162910444    1.98711056487545
H          -1.84292031096663    1.41694769992096    1.10433855107069
H          -0.56932042157029    1.84732127372512    2.75959296346246
N          -0.16473275484080   -2.42420345277626   -2.38246564426504
H          -1.09526731626833   -2.09417030881719   -1.95054614499212
H           0.37435111891154   -2.93537997315965   -1.64842080675975
H          -0.26174048830723   -2.93834235233934   -3.25076628049379
H           0.25167967549748   -1.45260691985938   -2.48423000139582
