    26
        -50.45916072  Gyration_radius:  2.55306908345 Dipole_moment: 4.821
 S          -0.11591451315306   -0.38797603767687    1.16112086570113
O          -0.75852037239248   -0.06000747092430   -0.23182417151308
O          -1.21455464447799   -0.92911451868580    1.94766887916528
O           0.98431134740826   -1.29661460999556    0.94422435609510
O           0.32487623661596    0.91113967096784    1.70268856646236
O           1.55040839965865   -1.42430688441553   -3.02492626637056
H           0.92586683388008   -1.59758150232423   -3.73089205181780
O           2.64871237238445    0.84764366953534    0.37973532909344
H           2.75127658223960   -0.10378538618297    0.49138667304741
H           1.91083997804361    1.06832299946803    0.97726977709670
O          -2.74557494054844    1.76554370958597   -0.28551943481110
H          -2.41523809966100    2.45488634435166   -0.86519755431496
H          -2.15023304860147    0.99970754888818   -0.41462245577815
O           1.02540275872519    0.84093551438042   -1.72598114994157
H           1.75737163336075    0.96888073518073   -1.07628365712559
H           1.29130176923481    0.06873237004545   -2.28157261311721
H          -0.02102834175895    0.31613160553630   -0.88230305758590
O           0.86634102181558   -3.05566938176257   -1.01705490580613
H           1.33095974193755   -2.06305375684698   -2.30829121351402
H           1.47630122891767   -3.74365492945245   -0.74484194054383
H           0.82997965803451   -2.42173194623377   -0.26735032314222
N          -2.09613130204838    1.41049124629441    2.28127768710349
H          -2.56013850015447    1.72360728375103    1.39967777565694
H          -1.05154853236604    1.57446840072771    2.18313540342828
H          -2.51048455638947    1.79844215954897    3.12121950707939
H          -2.03458271071105    0.33456318624429    2.26725594546825
