    26
        -50.45916068  Gyration_radius:  2.55305575443 Dipole_moment: 4.816
 S          -0.13870343964722    0.24197739045951   -1.19803157661048
O          -1.26136868601759    0.19455574672362   -2.12303118177649
O           0.41183512388830    1.55717780412700   -0.97333767278277
O          -0.72971633048671   -0.27711890127869    0.15923276755388
O           0.89250971366390   -0.74252745692875   -1.57595921511724
O           0.39131045335097    2.10428269992179    3.00056141717080
H          -0.32354927350318    2.01007820654496    3.63190759709749
O           2.77449245704147    0.41847694392458   -0.07140880208536
H           2.28549836956961   -0.13584695768703   -0.70684251647242
H           2.46042273807289    1.30918003064876   -0.26179275474715
O          -1.69096848419727   -2.79828158779568    0.21355872884265
H          -1.51745019487176   -1.84123516375715    0.32118005693062
H          -1.15803201180953   -3.23744760162737    0.87942737631283
O          -0.70351190947098    3.16061166086966    0.79879983009975
H          -0.00207245172877    2.54294725802765    2.21167745166775
H          -0.43490114725427    4.03677310599657    0.51651292084807
H          -0.36636768589575    2.54539791992304    0.11092473963622
O           1.07888242222351   -0.21116075510973    1.87726915682902
H           0.90846712788660    0.62205229916846    2.37953555135892
H           0.01578933740220   -0.25146143634516    0.90214097856241
H           1.86292730525187   -0.02518320977255    1.30719348627747
N          -0.96927154857075   -2.30415439852880   -2.31037383158865
H           0.01999889472958   -1.97482422141909   -2.10841937954254
H          -1.34695409456674   -2.75254493723413   -1.44604785094162
H          -1.39327269908959   -1.31687667468432   -2.39205256735981
H          -1.06599397595964   -2.87484773415837   -3.14262472014297
