    26
        -50.45301685  Gyration_radius:  2.45742831444 Dipole_moment: 2.644
 S           1.21983405665741    0.73035810715827   -0.41122411111069
O           0.69262361514366    1.98188180749531   -0.91790568666360
O           0.30489600875320   -0.37824651175454   -0.69153197807230
O           2.56140604661813    0.41045098797579   -1.12831614459010
O           1.52705528410103    0.78189095319161    1.01860645679644
O          -1.64919192859941    0.20690550747262    2.51363773841260
H          -1.82733549216883    0.72592590563226    3.29981325204925
O           0.30289421484348   -2.66889840860423    0.58373331751263
H           0.51654529776249   -1.96373141410692   -0.06883399207023
H          -0.66443136776240   -2.75159322331023    0.50288118534506
O          -2.09905446646226   -1.44578365621027    0.16287446801270
H          -2.28804814022084   -0.99195903351365    0.99034727395507
H          -1.38750630977552   -0.94386828872492   -0.26873301671275
O          -1.53646847421293    1.81175946076330    0.44697923708159
H          -2.13602217634505    1.50621517504147   -0.23831243986529
H          -1.56277258682431    0.85846194284327    1.76582245151102
H          -0.67864329234369    1.98113291700459   -0.00421430623851
O           0.62571355191697   -1.00976165525489    2.44140805879456
H          -0.29593353181787   -0.60942308335694    2.57090473507227
H           0.52167468659323   -1.80878134389927    1.75982144965977
H           1.11869140389158   -0.24745162411987    1.86908644426842
N           1.32240356381264    0.75864977994616   -3.40187310715799
H           1.56767741262361    1.13162560654387   -4.30995947956328
H           0.85082638220197    1.47943886615682   -2.86217398943356
H           0.67507880982454   -0.00811693424892   -3.53054664882764
H           2.31808742178525    0.46291814988417   -2.09229116816688
