    26
        -50.46042117  Gyration_radius:  2.39358462941 Dipole_moment: 5.474
 S           1.28600546518700   -0.00939320112457   -0.83614017552474
O           1.73917995996470    1.31151098855719   -0.44002943948880
O           2.10697084641774   -0.69981302186947   -1.79400208435278
O           1.00555021459554   -0.83197414413003    0.35520270452075
O          -0.10247045095709    0.16688202486153   -1.56291589283875
O          -0.79569267815608    0.39327657753704    2.60114729443202
H          -1.08247694819963    1.09791560894794    3.18523367145313
O          -0.39980745936733    2.90342175675064   -0.11500509316626
H          -0.23174182985610    3.73153521453259   -0.56585008460635
H           0.41747603514185    2.37399618887877   -0.21972872242822
O           0.25659444922602   -2.41547950698707   -2.52273733718701
H           1.04135473934149   -1.87003524792417   -2.26165714181997
H          -0.09025201430743   -1.97387006926196   -3.30142812248785
O          -1.90070639592224    0.68312472180778    0.22359234920065
H          -0.79133862414337    0.43679284820381   -0.89237241761167
H          -1.51889519124326    0.49873047088826    1.12123274203413
H          -1.76486390117300    1.63816812197764    0.11521791135219
O           1.78486965580206    0.99749459070840    2.23228544819389
H           0.16626420606876    0.56164079050576    2.44432719536525
H           2.19212518221918    0.12952708104551    2.28273121585997
H           1.82483696353603    1.23213900224657    1.28439377082039
N          -1.07448790409931   -2.09834490527399   -0.25897272619255
H          -0.72710308756334   -2.32688168743183   -1.23512472545685
H          -1.82010381240333   -1.40103619610751   -0.26990935169804
H          -1.34083540687948   -2.92458151243372    0.26543074935515
H          -0.18045200295092   -1.60474649502470    0.16507828231589
