    26
        -50.46521624  Gyration_radius:  2.38448425806 Dipole_moment: 4.702
 S           0.37119685928144   -1.32418966931172   -1.05438682089583
O           1.03759870294316   -1.38822866870097   -2.35439939040070
O          -0.28677501190042   -2.53660767390636   -0.63116533422951
O           1.54940813494829   -1.02893520744623   -0.04169231601177
O          -0.50585535567647   -0.15859449370252   -1.01106619910375
O          -0.23492627598495    1.84727845070893    1.66975313813568
H          -0.48367886333531    2.59216647463807    2.21796293068797
O           1.74709349077438    1.67052254776356   -0.25639040693532
H           1.02066275113418    1.87243048199612    0.36346366389103
H           1.94456085035134    0.73124654009370   -0.09166953042175
O          -1.75059569980804   -2.03453892532756    1.46048985993773
H          -2.01757432394745   -2.88286893775546    1.81828932301451
H          -1.26692200768046   -2.24087404442095    0.61817042483256
O           0.48741054127066   -0.74634417496456    2.26825052153593
H           0.29504039478329    0.20723413676976    2.21728953693191
H          -0.36701894370313   -1.20782852589919    2.15024857170799
H           1.17827173572916   -1.01208728058358    0.89982279879922
O          -2.32858031877658    0.60547394998996    0.71030250319037
H          -1.78126560576478    0.34281658859180   -0.06100363636412
H          -2.46460980558077   -0.22903710636457    1.17859998418055
H          -1.08157677187817    1.46114514490666    1.30706311940072
N           0.99834429358943    1.12348854213285   -2.71003645941302
H           0.00505618709327    1.31800475005766   -2.81109088800225
H           1.54726309306834    1.52478233033049   -3.46376902671663
H           1.30420658504309    1.47120471475035   -1.74023207372812
H           1.08326536402943    0.02234008565421   -2.65280432402579
