    26
        -50.45909173  Gyration_radius:  2.50588881282 Dipole_moment: 5.784
 S           0.60808206483376   -0.70687774929724   -0.58176207162077
O           0.83867460371025   -0.84991718197352   -2.01525417258408
O           1.90638584065082   -0.18471550483359    0.03717760761609
O          -0.44884067342139    0.30724637075992   -0.35677356091942
O           0.22227395743395   -1.96352794549309    0.04808707460494
O           1.18834117058393    2.95225081358149    2.00375635474956
H           1.91344511248414    3.55639730883400    2.16940288083986
O          -0.88395079164688   -0.72124046132893    2.13636239742499
H          -0.50714167162793   -1.43015121057502    1.58529553892769
H          -1.10352483263560   -0.03472916534465    1.49230218935908
O          -2.00847640359802   -2.81384656466631   -1.03720220249146
H          -1.12014187320028   -2.64238019911988   -0.63655059639407
H          -2.60482797385823   -2.94953428311821   -0.29789628486205
O           1.08499205067697    2.45802581595812   -0.64426322071041
H           1.90806746220134    1.99878383933354   -0.83391882964119
H           0.41850822096996    1.74644558194232   -0.56994064388459
H           1.09070643636691    2.89339006559122    1.02689752772372
O           1.55094342817483    0.34179339690086    2.45420161971648
H           0.66150342049435   -0.05012461393410    2.60513114142849
H           1.81168753259391   -0.00444062611953    1.07473890268263
H           1.41686858979981    1.31822802542579    2.42725654753225
N          -1.63748144636465   -0.63420356620272   -2.46394449869238
H          -2.01029160241484   -1.53689599076409   -2.06464072309367
H          -2.11831972794435   -0.31216741767661   -3.29694204832150
H          -1.60785388323684    0.05427316944006   -1.68528856807082
H          -0.56962900101785   -0.79208191731519   -2.57623236132176
