    26
        -50.46115505  Gyration_radius:  2.6388104271 Dipole_moment: 7.511
 S           0.29654874712438    0.15126854493541    0.72006867605360
O           0.14842983415140   -0.13105281620630    2.22344522440199
O          -1.06491102389059    0.26289712839916    0.15437944075535
O           0.97946752692869    1.44647437706487    0.61914652449251
O           1.04135686096851   -0.91859960413544    0.09346345262410
O           0.16379826250126    2.46033075531610   -3.07454817302420
H           0.70262897969225    3.11070891648796   -3.52801779557082
O           1.56821512212368   -3.27967748197114    1.20527814946252
H           2.39641684521495   -3.13817989763119    1.66674689238086
H           1.41427157710563   -2.47204625347924    0.67243775966334
O          -2.32032142230955   -2.07058304180981    0.34378061460322
H          -1.84331029402034   -1.23335810877732    0.16441071133417
H          -3.22965612729402   -1.82861969149007    0.52743314166612
O          -0.68673949031464   -2.50616801099415    2.43321086165562
H          -1.34931068668878   -2.53568193609273    1.71060422446044
H           0.09192544286225   -2.99413778056540    2.08795786667585
H          -0.20489458752910   -1.09035718546955    2.36932850821536
O           1.84769108183831    0.85222387493295   -1.83526611707698
H           0.79447037848920    1.77053092019620   -2.74344496572951
H           1.75535903653218    1.17526140348762   -0.91976372935582
H           1.70189949258745   -0.09594296671768   -1.73931004247466
N          -0.87060862502306    2.66637660076613   -0.64300350109004
H          -0.58367019347253    2.72396070867777   -1.65648965181163
H          -1.27128011513268    1.69792082456458   -0.44931398708012
H          -0.00190719095367    2.55178409575081   -0.05228907497651
H          -1.47586942148486    3.42466662475814   -0.35024500024762
