    26
        -50.46115532  Gyration_radius:  2.63821050571 Dipole_moment: 7.512
 S          -0.12495760762123   -0.65220990848004   -0.43474532137010
O           0.11105476708476   -1.31034868787467   -1.80326489137274
O           1.09441545218406    0.11198559601251   -0.09507859468558
O          -1.28481965256168    0.20924428964481   -0.50072845136739
O          -0.29645887007775   -1.75505632429812    0.51833927477439
O           0.34858528829801    0.06574295140738    3.92535434961145
H           0.02738515345474   -0.31533631911506    4.74423766111076
O           1.41606270263909    2.10950788488403   -1.81617870915404
H           2.36670602609678    2.17079446583832   -1.92380944695029
H           1.26074452596887    1.45018937293353   -1.10778409787645
O          -2.48341010047341    1.00275306509068   -2.74173332543242
H          -3.13433789597344    0.31953008961957   -2.91039748449552
H          -2.11804027129614    0.81424638120108   -1.85241723134590
O           0.04300370347729    0.54493963227891   -3.51655907069992
H           0.10674708809172   -0.59209481777346   -2.54546987885028
H          -0.89944931411961    0.81000621136700   -3.44629188877991
H           0.54275288743903    1.24831880042196   -3.05026859089592
O          -1.62845772236469   -0.15750834323791    2.19317299797288
H          -0.44028977350624    0.12563734601218    3.32784964796589
H          -1.82759529814017    0.50633476858060    1.52304089189815
H          -1.30837669743414   -0.90860900408812    1.65992373996077
N           1.69126187890736   -1.17892610710987    2.00896860517931
H           1.31652926321887   -0.71025633222696    2.87660497861124
H           1.73163544660639   -0.46476528836153    1.21876879015892
H           2.56415446791165   -1.67120165529370    2.15984439772984
H           0.92515454218328   -1.77291805743670    1.58862163830940
