    26
        -50.46115516  Gyration_radius:  2.63842941322 Dipole_moment: 7.511
 S           0.36785519544140    0.01756533107508   -0.70184345911121
O          -0.20116958553081    1.15502226944074   -1.43464223303631
O          -0.72378028174732   -0.82139315387636   -0.16302949528641
O           1.12097028903502   -0.82178879380053   -1.74581172969565
O           1.27948613556028    0.43123861417121    0.34208849589945
O          -2.95108892770405    2.38381240129152    1.06623489972747
H          -3.29692382476307    3.27581212164101    1.00547593827137
O           3.71724386237972   -0.56600053070363    0.73211786618548
H           4.28191120080768   -0.01542650854745    0.18719881096874
H           2.83388784659291   -0.14248153953093    0.72002388530813
O           0.29306315287313   -2.88821915086977    1.15965207973404
H          -0.31666154825603   -3.60412425053950    0.97295416521399
H          -0.10401585522956   -2.07999422827477    0.77259085991489
O          -0.33424260709788    2.59592464757064    0.80992629211439
H          -0.22432974476755    2.28928877359390   -0.10926594125711
H          -1.96619639741503    2.47959144979677    1.12851542192241
H           0.29290280174660    2.04470313354976    1.29188257888228
O           2.41014105443258   -2.57746377827084   -0.46635863952188
H           1.74915660475561   -2.83950751476462    0.20935156745581
H           1.65838538005951   -1.56906293084290   -1.27715941438597
H           3.05132283059080   -2.00672312778568    0.00983467393336
N          -2.64768427267994    0.65464193305480   -0.91935506041856
H          -1.82114114549408    1.08031044901630   -1.42229937436137
H          -2.11149815136049   -0.15329097877675   -0.47789015465050
H          -2.95726054856354    1.31780896593441   -0.15960757556761
H          -3.40033343363617    0.35975638645639   -1.53058445825984
