    26
        -50.46195505  Gyration_radius:  2.47322675735 Dipole_moment: 4.188
 S           0.23251686147889    0.58897535824373    0.71877377684145
O          -0.55011485277640    0.95433725138004    2.00597059831419
O           1.64531603552182    0.51722511792267    1.02743155527199
O          -0.28462162455398   -0.72448768739121    0.28049482899845
O          -0.10323911101373    1.60085534463365   -0.26840915786989
O           0.28513724285366   -2.54044931039271    2.14456625093418
H           0.12371272091713   -1.94668180792599    1.38281696219704
H          -0.51090684650420   -3.06301635619829    2.25308490733965
O           2.58325698242672   -0.42213724589221   -1.26556329022313
H           3.52765227673699   -0.25623375623684   -1.27834811573046
H           2.26755881950025   -0.12985202075126   -0.38451144515730
O          -1.24686884310888   -0.69773803810976   -2.03327476730170
H          -1.96935015967531    0.06470790479156   -1.82476294011368
H          -0.86315271801551   -0.86405485960389   -1.09328704457285
O           1.05568648768517   -0.35557180471549    3.50456104909397
H           1.72675916513950   -0.07431213392663    2.86464915147861
H          -0.03429529075174    0.49465214487144    2.73546916902960
H           0.83544706767917   -1.27411214261351    3.24619758760808
O           0.67243772068266    0.76974409678384   -2.67419039500799
H          -0.45343895946939   -0.16732403674238   -2.48148453952473
H           0.46542916928630    1.33074967013877   -1.89816352354990
H           1.46972666050152    0.27209506383655   -2.38823054403074
N          -2.66075236448365    1.25692226849005   -1.27363657603481
H          -1.84156985914554    1.61692525864280   -0.76982845414494
H          -3.39827643075598    1.08624480704553   -0.60280416597298
H          -2.97405016015489    1.96253689372512   -1.92752085787390
