    26
        -50.46115510  Gyration_radius:  2.63841965592 Dipole_moment: 7.511
 S           0.58197399839240   -0.53626808875942   -0.05232297014591
O           1.91134588319961   -1.00944400466225    0.55627093501652
O           0.82699034296947    0.54787753369462   -0.97776567088428
O          -0.00237658822504   -1.71300885508879   -0.70683813545306
O          -0.28765581312310   -0.10645467492057    1.06335798115351
O          -3.74195521124979   -0.61125847937042   -1.07251981725657
H          -4.31272445685863   -1.03757852408991   -1.71394546081691
O           0.76158475659536    2.01811932459501    2.26378862648854
H           0.54640689536186    1.88968449876775    3.18916969112314
H           0.30137322264585    1.30570377221108    1.77244363039429
O           3.10584370072443    1.91059297900128   -1.17213839263070
H           2.20953578781495    1.51499258388641   -1.17887369863421
H           3.62034592466263    1.41021174885456   -1.80759981559462
O           3.10857265946370    1.06041835717939    1.37095490904160
H           2.44034824647408   -0.20051630112164    0.92045089148856
H           3.28777740631438    1.50359551823769    0.51353795969118
H           2.36568966796545    1.56233400355683    1.76886425855668
O          -1.45945258594379   -0.15539407079358   -2.31401316980412
H          -0.90905523692835   -0.86407958867337   -1.93217905493278
H          -2.94928033647295   -0.30062495877087   -1.58072211922558
H          -0.92230967236239    0.63118515415269   -2.16489697246298
N          -2.14260981803121   -1.79795248500681    0.67650292822288
H          -1.58299464733826   -0.99607288375904    1.09967932069242
H          -2.92176383525474   -1.40029229917412    0.08700991146381
H          -1.37799630657777   -2.14593296342646    0.03494369565355
H          -2.45761399422807   -2.47983729652815    1.35684051883376
