    26
        -50.46041449  Gyration_radius:  2.42345536606 Dipole_moment: 7.850
 S          -0.61072529782713   -1.17220093719704   -0.19453495134356
O           0.21790476168810   -0.67345252143942   -1.30797314790456
O           0.11480728674971   -2.32058540539861    0.49493918769299
O          -0.81953970167769   -0.08676748103133    0.76873609527974
O          -1.87752420371471   -1.68666590227747   -0.70446041908653
O           0.77742840178758    0.42569894152676    3.01007970478336
H          -0.03669710605473    0.16664748261108    2.55613010000942
O           2.66276744442688   -0.03411730599150   -0.63508952643121
H           1.75766302278624   -0.27808937694744   -0.94836109641922
H           3.27920625708965   -0.40327440532363   -1.26883408188200
O          -2.45260882930319    1.66894632005475   -0.33595196546218
H          -3.23530184451055    1.76437062079213    0.20892883705508
H          -1.84197112397553    1.07835169608930    0.16534079192252
O           2.13695462806989   -1.39854929668118    1.65504069749639
H           1.74312728309258   -0.76431091200394    2.30764356687788
H           0.96692361396011   -1.99074336170316    1.00195779641793
H           2.52818181115847   -0.85509753870345    0.94377083318606
O           1.12498181216348    1.91752194468321    0.72921749660501
H           1.07043037570786    1.21812064196046    2.52734689947330
H           1.86563874087888    1.54808719442355    0.23545941113217
H           0.38881829186713    1.30067826337961    0.59473826815478
N          -1.97888016426557    0.13994912219105   -2.42121802670929
H          -2.29982913152385    0.93418980883776   -1.81261152741585
H          -2.35914896167829    0.15213671124378   -3.36117978523579
H          -0.93913438881006    0.10056223062127   -2.37846767916514
H          -2.18347294811933   -0.75140653366958   -1.83064745902871
