    26
        -50.45909183  Gyration_radius:  2.50579661491 Dipole_moment: 5.782
 S           0.50023611246518   -0.95942722326405    0.19304945034848
O          -0.77555226626048   -1.57049403811358    0.77640357671060
O           0.11906745175603    0.23713647589844   -0.59389779251461
O           1.40624601533405   -0.57041566718391    1.26661616072260
O           1.08749969465908   -1.95315834845954   -0.69914625055326
O          -3.68396117515065    0.74143337519075    0.13130752874902
H          -4.56712776309880    0.36977542893188    0.13983476362121
O           3.57070016927507    0.47917946280916    0.22204647285863
H           3.65498596910190    1.33701888225492    0.64365672335199
H           2.85236346005663    0.00861912204066    0.71373386517721
O           0.10882379623495    1.72287141283335    1.69834174559316
H          -0.05913131013591    1.69788602178164    0.74678291995660
H           0.70818221122006    0.96819995928501    1.83770000216729
O          -2.16770124163622   -0.71266098047901   -1.55789262351735
H          -1.32727799458740   -0.27984908456137   -1.30819296489956
H          -2.12195182893603   -1.58200875296437   -1.14995762015499
H          -3.19267235220140    0.27922155525727   -0.58441368037685
O          -2.00514006119701    0.13852446430346    2.12294892446317
H          -2.69191899049677    0.43943612509425    1.48266074264440
H          -1.29512046734122   -0.89340019586285    1.40059397554248
H          -1.33930929187261    0.86122350043062    2.16616963025489
N           2.27813318169778   -0.13511655232437   -1.98618387899522
H           1.94076701606378   -1.09859608301934   -1.61780415163472
H           2.99565197056613    0.19351602533262   -1.28581557006514
H           2.59531906734212   -0.12629914041892   -2.94953089334246
H           1.40888864712703    0.40738426516097   -1.80901102607621
