    26
        -50.45424232  Gyration_radius:  2.49805998523 Dipole_moment: 3.421
 S           1.44358348048341    0.11486854631142   -0.14705629814314
O           1.16023704636741    1.38093482380495   -0.94177510659132
O           2.85428767777800   -0.27262632429208   -0.59363103690357
O           1.44654712126781    0.37705573244827    1.26816942788651
O           0.50667307370336   -0.90971935444847   -0.54847676091561
O          -1.01794751107194    1.39393607694097    1.94229795433007
H          -0.06093719353505    1.24470415976112    1.95255408875299
O           0.42087386244820   -1.49429154514349    2.99877534088382
H           0.51693186108222   -1.12460545443574    3.87829032779862
H           0.91008961943385   -0.90236410211533    2.40150045782430
O          -2.95195442334431    0.18063414985519   -0.87230334255593
H          -3.81887418202897    0.43908869863043   -0.55324627674000
H          -2.59215193493817   -0.43865526742284   -0.21818368482307
O          -1.15408676107112    2.15207661634077   -0.55274964845412
H          -1.78386981836289    1.46549367872391   -0.87151718464951
H          -1.18212793227909    2.07234797423819    0.43984286295807
H           0.14575043095987    1.75199434483425   -0.81634846043211
O          -1.55241350622917   -1.15337046711811    1.13143557294580
H          -0.83487643951240   -1.17140929110555    0.46649653970390
H          -1.14241177768394   -1.55762807984458    1.91347255786041
H          -1.39964234880503    0.50498136050762    1.78998652375178
N           2.01935730471034   -0.83853017203553   -2.94038717793666
H           1.14687205170281   -1.13071304765982   -2.50959971311572
H           1.85043662765878    0.00293196002822   -3.47547943786407
H           2.71769912123385   -0.52184437183477   -1.58182942111879
H           2.35195458009916   -1.56529061504257   -3.56023809449476
