    26
        -50.46117201  Gyration_radius:  2.41678083391 Dipole_moment: 3.326
 S           0.13862342195445    0.15839632473933   -1.00682218284803
O           0.19607219815343   -0.30964084820319   -2.47895283908007
O           1.31006443507439   -0.38320191808713   -0.33324765880067
O           0.08446349652812    1.60642902702991   -0.94951924605140
O          -1.09205997916261   -0.42114060669050   -0.42952885338919
O          -0.92371621276048    0.01570165244727    2.04858373929135
H          -1.18497757382609   -0.15187348211799    1.07310538995974
O           2.72751846605819    0.92587965725767    1.55452395717263
H           2.89829376594678    0.20946596732875    2.17074645167674
H           2.42038152178990    0.50747021338878    0.72911929298759
O          -0.57305116091603   -3.02115423129386    0.04977756998194
H          -0.10501760603378   -3.36326753368161   -0.71329393120844
H          -0.87798713717233   -2.12718184511467   -0.19891492841554
O           0.34829238721162    2.10049472323315    1.62551666308784
H          -0.40443110126072    0.97347734378141    1.99124920165131
H           1.29546420747080    1.85664009913315    1.75397197901180
H           0.23144313462005    2.11927417662989    0.64659932898205
O           0.88974043958081   -1.72887792106064    1.90758560450338
H           0.38807261188268   -2.48928769800417    1.55680922265876
H           1.22734722331006   -1.30058247641974    1.08931945838853
H          -0.19167814312833   -0.71624319875096    2.19394837530773
N          -1.87953097955155    1.16121325350539   -2.93142363815233
H          -2.19607840199696    1.69789510093958   -3.72868881207110
H          -0.59746934123465    0.16516084367446   -2.87474643401853
H          -1.44920458616795    1.78663840789571   -2.25540388720407
H          -2.68057508638719    0.72831499842407   -2.49031384343276
