    26
        -50.46117183  Gyration_radius:  2.4170670325 Dipole_moment: 3.333
 S          -0.47610844008298   -0.72391640490549   -0.55184402578476
O           0.46228841751283   -0.72615093167394   -1.65746140533188
O          -1.22083833787271    0.52309754045661   -0.45454908752976
O          -1.50577035615979   -1.86280066256707   -0.73161277400961
O           0.23067298041076   -0.99352926791127    0.71764897607744
O           1.58222689513725    1.08587612734339    1.17193405996066
H           1.17592753041131    0.14993008016563    1.08491945727451
O          -1.44317012609976   -0.27328801128524    2.70214214652241
H          -2.31435211270490   -0.59944194742483    2.47189082109231
H          -0.82797801830941   -0.66416200093558    2.05189284109191
O          -0.41720562940010    2.87144437758327   -1.51608494403889
H          -0.87383170608780    2.03084296652117   -1.32770008102653
H          -0.66042157396301    3.47292606108723   -0.80820183035293
O           1.83485405902226    1.48879044810253   -1.26107709127805
H           1.14940370237596    2.16178876683105   -1.48518299548428
H           1.80568547889762    1.34161464892295    0.13623886741447
H           1.44850874366391    0.63518246584649   -1.56802279090510
O          -0.69055342292234    2.07747180476498    1.62171565189473
H          -1.00280980819253    1.50327324189776    2.34680847232904
H           0.74538387014427    1.64843583139375    1.44785392263789
H          -1.03890513274986    1.62104967416972    0.82339208571975
N           0.47859918889659   -3.48574730268203   -1.05417710829847
H           0.91096678911946   -2.69176785468526   -1.51898628378822
H          -0.90724636691766   -2.66035789220383   -0.86456693873771
H           0.61627960533147   -4.31670581968269   -1.61487130811941
H           0.93839378054428   -3.61385594912712   -0.16209863733927
