    26
        -50.46117188  Gyration_radius:  2.4169788199 Dipole_moment: 3.332
 S           0.22713938952770    0.88450425838091   -0.47055779752514
O           0.98205758960644    2.22869228952396   -0.58410683316555
O          -0.74906668930176    1.02415705781261    0.60027576925800
O          -0.38613243750462    0.55241986323106   -1.74202769449835
O           1.23511881829649   -0.13386259195214   -0.10898211180763
O          -0.09348150271034   -2.19637323021959    0.47248592795495
H           0.58434604255046   -1.48582413105855    0.18225125500870
O          -3.22473712869259   -0.05154413864253    0.56244360140895
H          -2.46101234891566    0.55393603079289    0.53548449316176
H          -3.29604365283060   -0.35266419983818    1.47145285883893
O           1.76260670472705    0.19877736334445    2.51214716149800
H           1.84382708128256    1.14073116466384    2.66859900857181
H           1.71714555159767    0.08903916160650    1.54266623742123
O          -0.72836667812962   -0.82815958612229    2.49127445292053
H          -0.41945890661023   -1.80832737168575    1.38692438251396
H           0.14932399744898   -0.65889853859352    2.88371107103443
H          -0.85639547403548   -0.04509411218019    1.91035011238519
O          -1.85651263130333   -1.55269921113998   -1.14710690145876
H          -0.90587835523025   -2.04967897279359   -0.23911727060607
H          -2.56230525928659   -1.12553462931097   -0.60638418622132
H          -1.37490420017751   -0.79791432981852   -1.55999798869083
N           2.18503857777757    1.27486059247575   -2.66222826061638
H           1.29248786291186    0.82003246211178   -2.83511431689410
H           2.52287979697382    1.68563194981370   -3.52302092360262
H           1.57040126957534    2.06566176784395   -1.38368404237773
H           2.84192258242081    0.56813107174125   -2.35773800451003
