    26
        -50.46954172  Gyration_radius:  2.39892198116 Dipole_moment: 4.987
 S           0.86925222681759    1.26414898294015    0.42686078227869
O          -0.59256644471254    1.17366107046264    0.41271085508507
O           1.44794706656414    0.20300829724787   -0.42407921089214
O           1.34495944963440    2.56515841208752    0.04518312749771
O           1.34054355343577    0.93128863576384    1.87677579921539
O          -0.71468726261966   -2.50599603665537    1.06888861618368
H          -0.85509920812263   -3.41821694885741    1.32580622195389
O          -0.38928199461806    2.79032564425187   -1.92903634985178
H          -1.19147516261240    2.87699035587573   -1.40700739719111
H           0.33795561286279    2.84590297610725   -1.26634496305551
O          -1.84796264663829   -0.79887467446316   -0.84164699895213
H          -1.55891191001246   -1.56017138867519   -0.31458764223714
H          -1.54961613516294   -0.02331895094381   -0.32075788487281
O          -0.84765415225756   -0.23857303908184    2.63923175932344
H          -1.20027696674458    0.37269908800687    1.97292438120784
H          -0.90022318774515   -1.11940149582480    2.22442496453251
H           0.57624726763634    0.46521789930911    2.31597437575781
O           1.85595154828901   -1.91604097488532    1.05951353963164
H           2.18319265642833   -1.55118867651940    1.88513242240859
H           0.26649931203330   -2.37346040207357    1.02261193873676
H           1.80907867311696   -1.15128758670815    0.44182736422338
N          -0.08012175643332    0.21836136948761   -2.49226218972698
H          -0.89402246796773   -0.31036905608131   -2.06945117719166
H           0.69347144176647    0.12009727716994   -1.76568304534653
H           0.18946315749206   -0.11419952662453   -3.41088898843515
H          -0.29266267043086    1.25423874869591   -2.47612031028387
