    26
        -50.45846909  Gyration_radius:  2.4859717126 Dipole_moment: 6.166
 S           0.90558651249383    0.63292393739323   -1.83042799065091
O           0.73402865351858    0.35093744413783   -3.22142730748081
O          -0.41829609755036    0.90093025540866   -1.18956495490309
O           1.35807197272870   -0.75414955171059   -1.20218066323603
O           1.86806378060702    1.63867203807130   -1.44549600689134
O          -0.79728996409731   -0.76172427098867    2.10700205007731
H          -1.01079005957092   -0.78504795666823    3.04081517100739
O           1.86525130799927    2.18879813710416    1.08167923838783
H           2.60634113949652    2.77537019673500    1.24002222146605
H           1.84908416608831    2.04052718167827    0.09598250619938
O          -2.32762685252548   -2.11875527916141    0.35079686341227
H          -3.17359332939512   -1.69101421028626    0.49718403555569
H          -1.70607922304849   -1.71402467580811    0.99698336744096
O          -0.83785178577035    1.68922397056870    1.29032220423613
H          -0.80558639229998    1.50642619015972    0.32592967710730
H          -0.87538539624815    0.20155919834275    1.81953914282486
H           0.03267345028840    2.07561000026978    1.47213640453416
O           1.85054187039817   -0.51646576232784    1.31927285534906
H           1.63690320367471   -0.66864537565426   -0.24061080384063
H           1.94553660790613    0.45244954950957    1.39882396247103
H           0.97175270885492   -0.73831018514011    1.67290768237352
N          -1.16393948088724   -1.37779929719096   -1.93902418519223
H          -0.19531895777032   -1.70726472432084   -2.00661025578388
H          -1.66450857579862   -1.82748850267574   -1.13039717173409
H          -1.00465579065026   -0.31693107161125   -1.67562152691063
H          -1.64291347840164   -1.47580722585608   -2.82803652579218
