    26
        -50.46195503  Gyration_radius:  2.47309574536 Dipole_moment: 4.185
 S           0.61936758761619    0.35270397654114    0.63977645981076
O          -0.75208699272187    0.33247552267439    0.08883800439569
O           0.89407951423395    1.81870392444726    1.06220784448310
O           0.72773552410950   -0.50369080007189    1.80219634485863
O           1.57318560024188    0.04154786279135   -0.41122200839333
O          -2.46650920754336    0.97557870206177    2.02369037538955
H          -1.90391398293014    0.64642252244077    1.29285108544536
H          -3.08450244770044    1.59403547417246    1.63110562461100
O          -0.10667669207824   -2.79911388455957    0.77488686903924
H           0.17320286493387   -3.49775177361626    1.36912961524919
H           0.15145478204032   -1.95661244274669    1.20480593248462
O          -0.86454270335031   -0.47326320358782   -2.28150399425071
H          -0.19696423019335    0.27140654072522   -2.66461787067322
H          -0.97405146111004   -0.15450188092189   -1.30948969529117
O           0.82645968408582   -2.19813107414010   -1.63857389080644
H          -0.24254330291037   -1.31391093495525   -2.14668478228322
H           1.36347146800212   -1.48192731962034   -1.24045892234011
H           0.43466936161621   -2.64848214996966   -0.85837898818796
O          -0.19141963149052    1.49366839661551    3.35503701391966
H           0.50893672581583    1.87455204312706    1.98847779806799
H          -1.13236814688208    1.40547638807191    3.09846344248214
H           0.16681292965011    0.59580052921310    3.28861321938257
N           0.90333302830813    1.25720036142833   -2.80758874142374
H           1.36714329852801    1.00972220316581   -1.92545184030217
H           0.64674150086011    2.23486018415727   -2.76969694109847
H           1.55898490886821    1.12323083255287   -3.56641194456911
