    26
        -50.45974662  Gyration_radius:  2.50438404484 Dipole_moment: 6.039
 S          -0.96127951016612    0.25463647256445   -0.12187192663349
O          -1.30917709186317   -0.13276439826244    1.31373431617411
O          -0.82165856021594    1.71114876884392   -0.23350639133745
O           0.31107770419714   -0.39114869933597   -0.48271467000622
O          -2.04361676282302   -0.22982134100616   -0.97372290097182
O           1.63803630888376   -1.94152429408796    2.82304562682073
H           1.49633023749398   -2.53273230526003    3.56377591642244
O           1.65980182067250    1.71517464178417    0.77316549768993
H           0.78300740581450    1.95012277565861    0.41687004085932
H           1.90615328319417    0.91801209239810    0.29167771743957
O           0.72532131367930    0.10813269208280   -3.02842938233532
H           0.81758254568073   -0.74163809742247   -3.46317093560867
H           0.67401372437204   -0.09157570445857   -2.06127519606813
O           0.54362104028416    0.49266790293541    2.85368633953710
H          -0.55978916997456    0.16649084140779    2.01025861792036
H           1.03124190164033   -0.36093011658550    2.93954131759242
H           1.08896160954274    1.05771243594205    2.25708801308918
O          -0.04103909292920   -2.66690966879314    0.85006868130586
H           1.10939691842716   -2.30043232072819    2.07445279404641
H          -0.92225352052307   -2.46854971270317    1.17879982191718
H           0.17306976370165   -1.92153545171339    0.25529942219746
N          -1.48109848149338    1.51646822446365   -2.70700811459559
H          -2.04568655778062    2.05140148937239   -3.35758461944877
H          -1.17516932573168    2.04296684756889   -1.85087384456567
H          -1.97944762494122    0.70880687732933   -2.19726984382983
H          -0.61739986915292    1.08582005800760   -3.12403629761488
