    26
        -50.45974658  Gyration_radius:  2.50431363148 Dipole_moment: 6.035
 S           0.79592856648037   -0.13277459396375   -0.59475685485053
O           0.48077300467505    0.83436950403226   -1.65244378652612
O           1.47168904492797   -1.30352936546814   -1.14654710549958
O           1.74120020275465    0.49397847223023    0.42767943608473
O          -0.44204015938440   -0.52710552015622    0.09670572083812
O          -0.12920662066765    0.96179338398891    3.67135275465640
H           0.36156414605010    1.02229384324780    4.49210998843456
O          -1.35144660299030    2.10643557328539   -0.17088002551637
H          -0.72735859894280    1.82023357691969   -0.86339342190583
H          -1.69567960521189    1.28383204111625    0.19348568409665
O          -1.91737169333700   -1.81627693435917   -1.65316081400514
H          -2.09658739475889   -2.68005367970018   -1.27716052978407
H          -1.45194325245393   -1.30830218754030   -0.94373429447723
O           0.63765912330445    2.41237503426045    1.56631072328712
H           0.31482351006045    1.99388087053699    2.39965173288070
H           1.32071210744412    1.35245466858082    0.89991300154122
H          -0.15771325175810    2.52620751422768    0.99438720230643
O           0.64858522474041   -1.27991842915378    2.40360452947711
H           0.07560939073441    0.07862084287642    3.28821455759450
H           0.13699389000549   -1.11778047962437    1.58673125386879
H           1.56309455855970   -1.12611258148943    2.15072629257885
N           0.07535733282183   -1.14002721666932   -3.24264287026941
H           0.81628771535023   -1.47055590040108   -2.53389025724328
H           0.26550129736979   -1.34480033479522   -4.21735216733196
H          -0.83674239532272   -1.51925351250468   -2.88254041942054
H           0.10031045952420   -0.11998459947739   -2.99237032082165
