    26
        -50.45261714  Gyration_radius:  2.4324231762 Dipole_moment: 5.789
 S           0.86431798749673   -0.09891211150946   -0.86922084652154
O           0.30395986361155   -1.13092830321601   -1.86512961881011
O           1.65869392289518    0.89520783745462   -1.55764478650909
O          -0.32985566802589    0.55809299831859   -0.24937767327532
O           1.59827595533960   -0.82364782113140    0.14360033842053
O           1.21056683929674   -0.76906800434523    2.81689386765876
H           1.85686004825633   -0.95701699439057    2.11738832070897
O           2.61829326477728    2.15525951411768    0.49433180725348
H           2.36906688399187    1.64557279274032   -0.32221994582299
H           2.74485133095513    3.06372154481513    0.21223745314229
O          -2.63390211117143   -0.68294660888484    0.03493565667118
H          -3.11676886163847   -0.24782984121339    0.73977214620276
H          -1.80097535499593   -0.17436632107969   -0.08440695866816
O           0.59058124388418    1.45900128747266    1.86554539726613
H           0.84624733504978    0.55661131526098    2.38222914768362
H           1.46150638381721    1.82045511624408    1.46817305180857
H           0.10002531576873    1.11396214291080    0.99800070322135
O          -0.50817011352155   -2.12356797525656    1.28516353457328
H           0.44874172904469   -1.33640632205194    2.56273211059904
H          -1.34416202474821   -1.88472242480560    0.86044483954533
H           0.19478144822995   -1.87441305929589    0.66325510584969
N          -1.91321953848362   -0.19456610344893   -2.80427066412030
H          -2.54356906667238   -0.47210759790052   -2.05806763818340
H          -2.25446663634985   -0.55789495264949   -3.68357324759527
H          -1.88133112814026    0.81493649366942   -2.84738855115470
H          -0.54034903861412   -0.75442661181015   -2.30340356995335
