    26
        -50.45856213  Gyration_radius:  2.57475416473 Dipole_moment: 5.500
 S          -1.01081993049224    0.39561411866511    0.14209455401270
O          -2.01343935783306    1.23425239448553    0.75499343086460
O          -0.15946811539325    1.18318085233337   -0.78553645865160
O          -0.04981383170872   -0.02512443590644    1.29850425597704
O          -1.52915602733791   -0.79980683238084   -0.49074030086730
O           2.01010258057121   -1.81691511633604   -1.88486006745940
H           2.06510343153570   -2.67587966723250   -2.30707331084615
O          -1.20423046074581    3.38688466957999    1.92383871935700
H          -1.71383892580714    4.09235476473032    1.52094770592306
H          -1.60676714295670    2.54167302208481    1.58011230004736
O          -1.05033771536081   -3.33330911793048    0.19238111609288
H          -1.33249054381392   -2.45327588064219   -0.13072191804455
H          -1.66831647685971   -3.57241287180301    0.88454438702189
O          -0.18152132659786   -0.61910110391068   -2.79323013785746
H           1.23135775867211   -1.36481444099775   -2.29484234115960
H          -0.82633375225754   -0.91204877136807   -2.12547882959288
H          -0.00207106360126    0.28999868843458   -2.51980453188868
O           1.26896068002569   -2.06219045633535    0.66023672804649
H           1.63976537241808   -1.93840719877315   -0.24687898912299
H           0.50186698337549   -0.86326246666596    1.03570005659633
H           0.54609208789865   -2.71538348065783    0.55379497356237
N           1.06089980459192    2.43431691377668    1.01706613176699
H           0.59851800865024    1.94752845465448    0.12445138641887
H           0.26762725713153    2.99518794868894    1.44612017442386
H           1.27838706761936    1.65785343844946    1.64269164115735
H           1.87992364829885    2.99308656509716    0.80168931428560
