    26
        -50.46243616  Gyration_radius:  2.53441676946 Dipole_moment: 5.582
 S           0.17388197566451   -0.94960095529538    0.57081629185419
O           1.24875123270284   -1.00217319669062   -0.39742872084565
O          -0.57835665798200   -2.30520511333556    0.46256931657574
O           0.64483644098578   -0.75932639673420    1.92975220412787
O          -0.80337255110090    0.10367620536639    0.21421122539386
O          -1.60094426796182    0.21389492643151    2.89003746124737
H          -0.67684671289847   -0.07511340326123    2.72492610787398
H          -1.85607521018908    0.64872021906075    2.06960617675790
O          -1.45019461676497    0.22075354621681   -2.32463814537820
H          -2.05695577711118   -0.50567930353649   -2.47641789457869
H          -1.26868991204475    0.21773966309116   -1.35418403238348
O           1.16412616634625    1.72138563008730    0.72234422006988
H           1.58483468356779    1.10772243653012    1.33589410351079
H           0.30836659705874    1.27543251537352    0.52594124597770
O           1.11861617090400   -0.13959615970605   -2.81456567014560
H           1.23083162681631   -0.66348648162482   -1.97835554616651
H           0.14303206445128    0.01063637296025   -2.85322833422388
H           1.66298885408182    1.05405389786246   -2.29418884270204
O          -2.27450773859667   -2.29353072957005    2.43761522084220
H          -1.27140059252138   -2.34148342538029    1.17955993522198
H          -1.87981877147033   -2.80394548074979    3.14788829278208
H          -2.18446876451108   -1.34213810080788    2.70264999303914
N           2.07471315989569    1.96144935473928   -1.74862052321379
H           1.68872035351703    2.81726154827625   -2.13428696103235
H           3.08761249272285    1.96926807363273   -1.80692272040908
H           1.77031973443969    1.85928437707043   -0.73097441419311
