    26
        -50.46492028  Gyration_radius:  2.39775447134 Dipole_moment: 3.483
 S           1.01807589969081   -0.43842795303315    0.95196369569418
O           1.24777994150033   -0.53002278019852    2.38501675824311
O           0.30487339635604    0.81237659203307    0.65843308571718
O           2.38840858964067   -0.36021261490910    0.21820189673818
O           0.29579501841789   -1.58960064979886    0.42734408931434
O          -0.03465520796576    0.44713313680222   -2.93264880460794
H          -0.04212320760839    0.73896626642783   -3.84535421390463
O          -2.21095338271172   -1.21476612212104    1.09953632659892
H          -1.34382391016579   -1.59885327658724    0.83756351495843
H          -2.39754366323087   -0.58065414546350    0.36732439875930
O          -1.94702033325880    0.64634435243255   -0.77372450750999
H          -1.13590712195075    0.83728728120846   -0.26360348182401
H          -1.62262001063006    0.43556229812351   -1.65812979208334
O           1.51027409435408    1.97217006667153   -1.38901170851246
H           1.06679561301762    1.67760632991815   -0.56476783413939
H           2.41533735181802    1.66074432159297   -1.31270781562640
H           0.49646461810002    1.11170353581526   -2.43037039854060
O           1.54399891482398   -1.53446232315413   -1.90706489741071
H           0.94689944223744   -1.94609754668198   -1.26065593126536
H           0.98385730685315   -0.90440650605500   -2.40284586817321
H           2.23114432450707   -0.80841748017331   -0.66903954286829
N          -1.16000969626320    0.24822287909455    2.93061089026725
H          -0.13970861217679   -0.08650631882119    2.85728373853724
H          -1.72132945771105   -0.38496501374322    2.21006769785594
H          -1.51878208748737    0.18238057901478    3.87825833409877
H          -1.17522781016399    1.20689509160949    2.58832034968561
