    26
        -50.46050459  Gyration_radius:  2.59214108154 Dipole_moment: 4.565
 S          -0.85793950107452   -0.12612131268198   -0.92855810449030
O          -1.29022847730259   -0.32674896903443    0.55769666170959
O          -1.93095275014099   -0.78350293722388   -1.68622755245632
O          -0.73381584186287    1.28116946318186   -1.21102994193577
O           0.41015921627291   -0.84093189969811   -1.09653793094253
O           0.63100031146112    3.33210313694469    1.85252009081491
H           1.45042739312996    3.61400981314286    2.26309627911812
O           2.35834927248546    0.54752480705575    0.10848458689151
H           2.25945936667720    1.43469625603728   -0.26239239778878
H           1.77560979028442   -0.02350623389485   -0.42790895866211
O           0.33358526768123   -3.37544072258410   -0.57257860700797
H           0.70859780773072   -3.81675910030395   -1.33656554281542
H           0.47428809304935   -2.40306113460451   -0.73063268052120
O           1.19656694154063    2.96236608576837   -0.78316325602479
H           1.11139227028840    3.64968848848196   -1.44548667204138
H           0.80262202293719    3.30073185162486    0.88965348916930
H           0.45586675163690    2.32911347867433   -0.96116587823072
O           0.51330087376465    0.63747145086796    2.01501343081226
H          -0.57342056216885    0.08490672440565    1.18091817440473
H           1.31540987454429    0.52519693320425    1.44782105501754
H           0.39176952670400    1.60861905085751    2.08611300606654
N          -2.19136711988461   -2.76464654883701   -0.17602016690817
H          -2.17735643095248   -1.91866019385725   -0.92042461447382
H          -2.96525535349823   -3.40819071091185   -0.30153170185839
H          -1.24515502081607   -3.22318797747455   -0.29047422057622
H          -2.22291372251796   -2.29683981914130    0.72938144271726
