    26
        -50.46243667  Gyration_radius:  2.53515691502 Dipole_moment: 5.577
 S          -1.06630114052665   -0.07546238897029    0.34596562634126
O          -1.83497127389262   -1.29942811659881    0.91661451641634
O          -1.23129647621602   -0.12471316609572   -1.09126148853731
O          -1.58609946542035    1.14516688575536    0.93347133157775
O           0.35473877091516   -0.25922502277192    0.71828185856571
O          -0.15005896628914    1.05290638666393    3.13347614857944
H          -0.72944908349071    1.29593059400402    2.37838564754758
H           0.60980766490252    0.63461516994845    2.71531814250013
O           1.64329895330809   -2.12638014000952   -0.59774090967679
H           1.21284229304270   -1.42570727893777   -0.05130340471556
H           1.36822552178753   -2.96009076810570   -0.21291076454949
O           0.67627181349498    2.03415069721923   -0.45864724259321
H          -0.23018409857216    2.31209432078063   -0.28121451879431
H           0.74493994502117    1.19294221092796    0.04868528654068
O           0.39694903890390   -1.22885444349521   -2.74502021154091
H           0.96195248470553    0.05930179110733   -2.86706457458751
H           0.96060469452312   -1.70258562462465   -2.08656730516102
H          -0.38176309390204   -0.93584172504379   -2.20282266839343
O          -1.78495064033653   -0.98129690620985    3.50024998588744
H          -1.81657203835068   -1.24901101270944    1.91300232205830
H          -1.12637476996824   -0.24113491246092    3.54427654328941
H          -2.62872461765665   -0.59943294250023    3.75136871892580
N           1.33820027110507    1.13075291316523   -2.85343415662996
H           2.35048511672286    1.15668167559512   -2.92226317982626
H           1.03293988342183    1.54007121200622   -1.91616840282700
H           0.91548923277137    1.65455058136773   -3.61267727038602
