    26
        -50.45854334  Gyration_radius:  2.48313349277 Dipole_moment: 7.770
 S           0.36013769254974   -0.19062704829223   -1.49877127978552
O           1.50774455564581   -0.07378727145347   -2.33500918811943
O          -0.74176922219232   -0.99474503442830   -2.29553696911680
O           0.58607771886206   -0.96203703689009   -0.26817923350316
O          -0.26584243205181    1.09802980727979   -1.16248089115694
O          -0.02186133283962    1.80925777796492    2.60389693983957
H          -0.01343794806949    2.61325842456388    3.12534109808077
O           3.06723298841139    0.15744107563600   -0.10813157634623
H           2.39209016364285   -0.46620136395672    0.19063186173313
H           2.93815392433094    0.18654930079307   -1.06708906730448
O          -0.18122971873415   -3.54421354824422   -0.81157820693717
H           0.08242723974259   -3.79136696233520   -1.69898754012014
H           0.31928299691661   -2.74170407949173   -0.59576742615553
O           1.51148068875480    2.24288234347225    0.55082909907590
H           2.26595592241319    1.62416152958172    0.45343990847666
H           0.91719907629569    2.00980585362570   -0.18220208676228
H           0.66584440509557    1.94339317548504    1.88629440944383
O          -1.90746981011202   -1.48556905046301    0.19230926453249
H          -1.40893814057640   -1.24887495168164   -1.64106884116061
H          -1.99108444742078   -2.44437638087963    0.22473705977074
H          -0.93367040703220   -1.32810799147483    0.21055765383949
N          -1.86236465644159    1.12567583264312    0.86216463085534
H          -1.23916972909706    1.16470165292194   -0.01998891818149
H          -2.64815479093539    1.76132269175441    0.77799304909686
H          -2.17491933994842    0.14704027342621    0.93228339655868
H          -1.22371535721449    1.38809098044011    1.67431286335003
