    26
        -50.45854337  Gyration_radius:  2.48306814261 Dipole_moment: 7.763
 S           1.28891972398856   -0.37976311658066   -0.77999557661759
O           2.10148251949698   -1.53234594286681   -0.98314854080760
O           0.96562830018453   -0.11010492650583    0.62826158879967
O           2.10485338804424    0.88219639119275   -1.26685343840195
O           0.05208787326241   -0.37465350457436   -1.57734314282907
O          -3.04644184943686   -0.54488865564403    0.68569442530541
H          -3.94059469507061   -0.86582123054834    0.55958272670575
O           2.83674554043482    1.68603183573526    1.53597813021534
H           3.70258875019898    1.47588160138001    1.18356210909080
H           2.28765016658204    0.90022079738256    1.38708691303912
O           0.75097606324689   -2.79999886280185    1.02000069205668
H           1.38635194031728   -2.79270842209496    0.28967602426467
H           0.77123112565173   -1.88998442758186    1.34471365472171
O           0.34565501619731    2.38194247097544    0.29721617215253
H           0.92417152278881    2.89338756293774    0.87260178210691
H           1.63209400519580    1.65268566081529   -0.91929383080053
H           0.47623840211988    1.44945462253511    0.59174732413586
O          -1.46949286719360   -2.30075434696273   -0.40254751828482
H          -0.94313724036491   -1.74028032036657   -0.99722893330171
H          -0.80674724554607   -2.69868524402711    0.20078130945216
H          -2.44548303942931   -1.28521114656190    0.37459987769128
N          -1.82074965404993    1.22549901802535   -0.81511086161172
H          -1.05637957196327    0.56924305386836   -1.20645346110303
H          -2.37240865606918    1.62573716090867   -1.56616613327074
H          -2.41143620860506    0.62033728377653   -0.16639586112528
H          -1.31380329997672    1.95258268758090   -0.29096544157796
