    26
        -50.46972953  Gyration_radius:  2.43071078148 Dipole_moment: 5.132
 S          -0.37016878117821    1.52234189743949    0.10478147337946
O          -1.17906098658623    2.34537884363596   -0.75540944730701
O           1.03034592614821    1.43463121132822   -0.35628911328401
O          -0.44479968070707    1.81439874894899    1.51650506972601
O          -0.94156148321970    0.05576180769612   -0.10494801021690
O           2.09601278559708    0.53593352724347    1.88370145512760
H           1.64220444000772    1.06140591827384    2.54907529452322
H           1.85960224069244    0.96049247887098    1.03323384486003
O           0.56015180244012   -2.56164160893553   -1.00607512395658
H           0.67202182406117   -2.30949639139986   -0.07187271928385
H          -0.31027780898385   -2.96001994899947   -1.06483423531964
O          -1.17674246448492   -0.12892216982422    3.16124716770503
H          -2.06788541417861    0.03660510562292    3.46962255586791
H          -0.92971591722851    0.65122713692197    2.61673166981654
O          -1.58534678029027    0.82898006741534   -2.81625372573280
H          -1.46830014127585    1.51635200966520   -2.10807095622821
H          -0.15776532368163    0.10739384161296   -2.66558487835837
H          -2.32945889229857    0.30130666752307   -2.51893236603590
O           0.44113928626664   -1.46815348499795    1.50243516339328
H           1.19922294558899   -0.85364949322716    1.68582374600310
H          -0.15683194324101   -1.33450944049769    2.25928827093912
H          -0.44640640540046   -0.53957835606524    0.52064071247233
N           0.79906713179384   -0.19938007246651   -2.32587700275512
H           0.74406805215085   -1.15169182598669   -1.89568582709902
H           1.02992088055480    0.50056135059828   -1.54589950028726
H           1.49056470744825   -0.16572781039402   -3.06735349794368
