    26
        -50.46294018  Gyration_radius:  2.65580746888 Dipole_moment: 5.948
 S           0.05675327964293   -0.63680771304775   -0.15163324853673
O           1.09380564108273   -1.62169449411468    0.00880068892833
O           0.26981343603727    0.54998741755183    0.70269830312142
O           0.04819162856019   -0.10178303600317   -1.61325919140384
O          -1.30398727178501   -1.13895090372167    0.04023688956856
O          -3.47246169795416    1.48515470802698    2.03666993518313
H          -4.34451637395690    1.10410579932248    2.15075257110004
O           2.81775819819952   -2.27336477298995   -1.92401561102540
H           2.42237525679908   -2.97141252339683   -2.44791651650086
H           2.22609889597601   -2.14256204878569   -1.15532211883679
O           2.93221624428060    0.60257796108279    0.38015747381890
H           1.99092989475125    0.69236681784626    0.61722814181198
H           3.15243933451025   -0.31278779309800    0.57451398667027
O          -1.64309133974401   -0.34449971536541    2.58706942990192
H          -1.62409514788650   -0.84352795753351    1.74768904814090
H          -0.78556204146156    0.09250202948835    2.61762828196623
H          -2.83315734165099    0.82997736381458    2.41912533061922
O           2.44743014708785    0.37690714658786   -2.24069231558103
H           1.00521463206960    0.12810972167917   -1.92822701886774
H           2.78807673149965    0.64696264561420   -1.35801822560472
H           2.76286218945393   -0.54254185311595   -2.35366001707790
N          -2.03234900776553    1.32438681129355   -0.16833227437259
H          -2.71740926045327    1.55734558749384    0.60407798838065
H          -1.04584087775201    1.39348679679204    0.20885177972143
H          -2.05161607076713    0.28163684766818   -0.33670915642357
H          -2.15987908878199    1.86442514692959   -1.01771415471522
