    26
        -50.46507283  Gyration_radius:  2.55440142927 Dipole_moment: 4.274
 S           0.29070431374358   -0.43761725738853   -0.84282092403152
O          -0.45850755776064   -0.44324103056984    0.42120726426214
O          -0.47318940438592   -1.13086925416060   -1.87351707961505
O           0.64278761826440    0.92160813017676   -1.22852397023778
O           1.59666401064344   -1.23641288888728   -0.59982699080823
O           2.92745286742062    1.15576863138124    2.08114065780676
H           3.65116322625854    1.05629906259072    2.70137813094994
O          -2.93303004222730   -1.31599033112806    0.70812092747114
H          -2.89001850966501   -2.26118484272585    0.86053740878627
H          -2.00057879585834   -0.99718434922446    0.73305417168935
O          -1.62378921379696    2.05925806855533   -0.60969311077679
H          -1.62661872630595    1.93415946851415    0.34324806606737
H          -0.72174049817438    1.77631381053615   -0.89507443407265
O           1.37527072938842   -1.02345627184591    2.24662058786665
H           1.85245678764085   -1.68991344845328    1.74471816036180
H           2.31229842859800    0.40536752924726    2.24901716803184
H           0.62101447621106   -0.77608516068532    1.67222223853678
O           3.20772609452166    0.71671670436556   -0.54790024347257
H           2.47529006867171    1.21418875391335   -0.94537216828997
H           3.21409271663224    0.97428149560466    0.40233761349565
H           2.34789993683342   -0.54789903898539   -0.60241302337080
N          -2.79830963517450   -0.06794257683088   -1.63124549735326
H          -1.87607377958195   -0.56010728003569   -1.88829651440773
H          -3.45523184306048   -0.02789949675992   -2.40215613794229
H          -3.16290012203874   -0.59032587317297   -0.80237375390732
H          -2.49483314678970    0.89216744594532   -1.29438854704471
