    26
        -50.45606710  Gyration_radius:  2.59897441116 Dipole_moment: 7.224
 S          -0.05690454782319   -0.53199401207126   -0.97207223059093
O          -0.49269770952238   -1.55804682866650   -1.93115836179687
O          -1.20952279704592    0.22256479601876   -0.47512190697636
O           0.46606692487932   -1.37460340309132    0.24220866324834
O           1.00073208408954    0.30964134209259   -1.45547192243097
O           1.45425370985861    2.60849831087245    1.41536601168092
H           2.15280043067646    2.62162130933212    0.74493258601990
O           3.16376525734813    1.56739129134180   -0.56143496922376
H           3.62044627614599    1.94135499610131   -1.31567905593146
H           2.36870016069737    1.12548774360162   -0.92606192944683
O          -3.23059215073144   -1.16232886844116    0.35536721424152
H          -3.95951451616033   -0.90975614843086   -0.21421108394312
H          -2.48110039378545   -0.55236520574371    0.11515505453157
O          -0.85047208309942    2.81378355403131    0.00545917182934
H          -0.93912043664114    1.87821672292732   -0.26919308493876
H          -1.61739744495929    3.00513692618655    0.54827894930763
H           0.62309724264012    2.76430715024141    0.92321021737611
O           2.04378488467574    0.05880377317737    1.59999592516498
H           1.08419302612608   -0.78829547068094    0.80871904162965
H           2.81802464959616    0.17210569850085    1.03578682591756
H           1.70071098676720    0.98809932863946    1.70008776486236
N          -1.55048903020217   -3.09116311801574   -0.26208524952410
H          -1.82249537177435   -4.03205749003478   -0.52560052194907
H          -1.09255557971748   -2.49325950630969   -1.10453287190290
H          -2.36327689888721   -2.49617229114209    0.05825968350675
H          -0.83043667314721   -3.08697059044284    0.45979607927870
