    26
        -50.45606732  Gyration_radius:  2.59936249381 Dipole_moment: 7.224
 S          -0.52090165994129    0.88800575896543   -0.41012130767837
O          -0.46509537770317    1.47785617206508    0.89737468607075
O           0.79613091548669    0.50660170556597   -0.92463597861418
O          -1.36101609459024   -0.43415669912625   -0.34590515746051
O          -1.24262969188468    1.69780630614881   -1.40306135485156
O           1.51697167440416   -1.04700178663561    2.74430305332819
H           1.06511369605855   -0.38358987155714    3.28589083892486
O          -0.51610691439915    0.76293227150047    3.45636463125989
H          -0.48451270905359    1.06459611798077    2.52453241707582
H          -0.54903775182149    1.56064478255993    3.98547061449274
O           0.86446089798783   -0.49882499645783   -3.30733143281128
H           0.92695370514414   -0.17985529008505   -2.36614258336890
H           1.40751560510651    0.10354026056366   -3.81898320449221
O           2.79168341960925    0.38514093335306    0.82961487884254
H           2.04563166373078   -0.53511550421989    2.09944939511906
H           3.43647982989534   -0.12349034324377    0.33468018361617
H           2.03647112611889    0.52895983060694    0.22337719121745
O          -0.89267228618720   -1.58268952645419    1.85615233806988
H          -1.15337318542189   -0.91484982112001    0.53306698947787
H           0.07568347769636   -1.55265093104302    2.08588799064946
H          -1.29218086830817   -1.00955742402491    2.52136401679527
N          -1.72761579204512   -0.16247418991600   -3.00289069352154
H          -0.75041928362340   -0.39312781622157   -3.33321318475321
H          -2.03518240470678   -0.88045655023368   -2.34752554286407
H          -1.58600577503049    0.75243837485228   -2.35496193655696
H          -2.38634623650797   -0.03068176386513   -3.76275683795100
