    26
        -50.46212382  Gyration_radius:  2.38548241048 Dipole_moment: 6.900
 S          -0.01855752487060    1.09270108941742   -0.93049555890330
O          -0.58758828382019    0.82913030722206    0.40067962365694
O           0.21988217466910   -0.31772092136318   -1.56508166033824
O          -1.02077195805938    1.68960122517809   -1.81784998371230
O           1.21558732599237    1.81930386721868   -0.85152191801454
O           0.10955523098077   -0.98205690000318    2.59053515610725
H          -0.71442874440220   -0.56872024473906    2.31675098117774
O           3.03917971746389    0.33200294371688    0.46239385873933
H           2.58155260364330    0.90330178258619   -0.18195874467484
H           2.74778572331573    0.67990685037103    1.31940782782293
O          -1.96632602077263   -1.33098068912906    0.03809332521350
H          -1.49316062643660   -0.48976076460777    0.27084892673115
H          -1.30461407727101   -2.02532547108984    0.11078774575288
O           1.25452861308829    1.55918726702116    2.20530003262600
H           1.48312449178910    2.48516212547604    2.11138121715160
H           0.58108814660572    1.38412749072507    1.51505753137586
H           0.68575654440482   -0.24791359867849    2.83949199408506
O           1.32358648731062   -1.66219649845597    0.26534223863957
H           2.13901368654408   -1.10677222007759    0.33224042835258
H           0.87215646138935   -1.53452096426904    1.12960423581007
H           0.69416712332448   -0.89877219555519   -0.86595376397065
N          -2.40178887555122   -0.34146340894871   -2.36369733737288
H          -3.36492818601320   -0.16726081922637   -2.63247313467330
H          -2.33238876760396   -0.86587017373726   -1.43878170854186
H          -1.90092145915437   -0.85133504657062   -3.08555430461530
H          -1.84148979651601    0.61624496755100   -2.17454698844893
