    26
        -50.45854340  Gyration_radius:  2.4831478584 Dipole_moment: 7.763
 S           0.37262204275215    0.51569037813063   -1.41749744633625
O          -0.56027213305417   -0.07404324207321   -2.54756933535851
O           1.46532552078360    1.17549970413721   -2.05039364294554
O          -0.48919306537656    1.41178560722557   -0.63010385777566
O           0.75983097497274   -0.63962972150509   -0.59527765698032
O          -0.34610620359130    0.53386005046218    3.10570913812750
H          -0.48773199630595    1.03681542168352    3.90905169566663
O           2.97589027658058    0.74571818159065    0.18118311250562
H           2.83368152900107    1.14553381428457   -0.68883335444895
H           2.43796391903349   -0.05660480756062    0.15054462221546
O           0.50721903608717   -2.86137482398534   -2.19183722184502
H           0.81020163355025   -2.67277386257288   -3.08104250143233
H           0.84245334139144   -2.14129075422676   -1.63483652549538
O           1.05012473883705    2.04918947802435    1.52162738873332
H           0.50449109309809    2.03594142913728    0.71732189236702
H           0.29404295518186    1.07534348664890    2.55545121293030
H           1.90980417949851    1.67536685014962    1.23407607387592
O          -1.57784622413239   -1.75264847037601   -0.56493898887574
H          -0.65353424116992   -1.44195331899112   -0.41487700304115
H          -1.15680855487991   -0.69305945121742   -2.10134456446177
H          -1.47154718295497   -2.63659238432375   -0.93201984350708
N          -2.03764511364199    0.30837026584458    1.11150527598970
H          -1.45353710333527    0.32334620626294    2.00297360921159
H          -2.93344138523940    0.76674563380723    1.23812538471288
H          -1.44400263358388    0.82153790057565    0.36828736113104
H          -2.15198540350119   -0.65077359113623    0.75471518503448
