    26
        -50.46294016  Gyration_radius:  2.65597791112 Dipole_moment: 5.941
 S           0.56509702865710   -0.01898056927552    0.33555342509629
O          -0.38070066445448   -0.28645208323102    1.54266143843259
O          -0.26856818610188   -0.20941190889238   -0.86958939674009
O           0.90860875410154    1.39631691651806    0.47369755850542
O           1.68577315443582   -0.92102778085786    0.37558642181984
O          -1.27331547742855    3.59050176622737   -1.97647946452509
H          -1.00003267626954    4.50152237324722   -1.85789966203383
O           1.95741187260304   -2.85211128032050    2.20014378090036
H           2.40491580052438   -2.47783020707250    2.96018865079169
H           1.98306191583413   -2.16426753743868    1.50411745013491
O          -0.04849061721341   -2.88310174624007   -0.89150045861621
H          -0.19141997019597   -1.92945615355118   -1.03383822540853
H           0.90410624610597   -2.98358915451983   -0.81042077153024
O           0.87219532202701    2.05129605496568   -2.13441697652395
H           0.58862635050008    1.17125569987771   -2.40350115774484
H          -0.45174943223786    3.08399096824907   -2.20592884601859
H           1.09506710799850    1.94886013362315   -1.18898558910963
O          -0.69028562507494   -2.78801299296097    1.70364793399998
H          -0.63306988074786   -3.01320494058040    0.74760337309046
H           0.18710819914956   -3.02834949000644    2.06433990178415
H          -0.56009471692906   -1.29788804650935    1.65546480578572
N          -1.58090630269109    1.84446156867378   -0.02243005703260
H          -0.65044073603216    1.93744799749396    0.46874675354984
H          -1.66528729376365    2.61654304760918   -0.74146612756087
H          -1.39467743067046    0.92700840497040   -0.51647390514129
H          -2.36293272213801    1.78447893996785    0.62117915412569
