    26
        -50.45940072  Gyration_radius:  2.54199059325 Dipole_moment: 6.815
 S          -0.56033106633740   -0.90731748783390    0.00073350380655
O           0.58606590424311   -0.80148019880450    0.90803161470496
O          -1.73717133061990   -0.25564903481794    0.52112350505940
O          -0.12707173435990   -0.22632187196848   -1.33175416239244
O          -0.78422668837581   -2.30639997758167   -0.38606783821454
O           0.33025546590351    2.88585031174504    1.45434958309777
H           1.26015721248370    2.96408436811006    1.67107941586239
O          -2.91306693819126    1.91572704880201   -0.49356730689499
H          -2.61090346473159    1.04641730002892   -0.16008259054627
H          -3.20082244089433    2.41048707299661    0.27618937032797
O           2.76344878150500   -1.88444869415026    0.02314463027288
H           1.99323221486941   -1.38343501895023    0.40588695977235
H           3.04190673972061   -2.49044482562705    0.71221748984454
O          -0.31560252055871    2.25913298655188   -1.06572217354204
H          -0.16846046306237    0.80662215483681   -1.22934978995303
H          -1.29433500645799    2.32314778531662   -1.03420324262446
H          -0.01609029008965    2.53514144095157   -0.16853459068642
O          -0.51195611237254    0.73111682265578    2.77579863168182
H          -0.01916873337848    2.15395517482152    2.01773440700926
H          -1.40222810565841    0.55554801707998    2.45234683398139
H           0.03617734347496    0.12499680581070    2.24077615387554
N           1.15384152101539   -2.51919457606753   -1.95910220389883
H           1.25770725005647   -3.34533221659863   -2.53848118615145
H           1.95643493737349   -2.37777415080391   -1.28449440139708
H           1.03708965763692   -1.67237750818764   -2.51430047409499
H           0.24511786681071   -2.54205172832459   -1.29375215890743
