    26
        -50.46428351  Gyration_radius:  2.66444934697 Dipole_moment: 4.531
 S           0.07741476871925    0.53893173693881   -0.62714964130198
O          -1.06603902528304    1.40179700762359   -1.19336942935876
O          -0.18085991884599   -0.86080864644950   -0.96458092012464
O           1.32660626084880    0.99051163584215   -1.20701878552584
O           0.08472538486337    0.70646126647280    0.84051506528882
O          -3.96621558015806   -0.81916961013124    0.68322253139604
H          -4.83134476981756   -0.60830002902082    0.32792859901227
O           2.29360273994483   -1.68901654227136   -0.77041192385932
H           2.70464991387862   -1.16313306675181   -1.46251857049808
H           1.32721224192176   -1.52427856853916   -0.88570268587139
O           3.38735002648382    1.96570250469801    0.08409552161066
H           3.19821520053407    2.88045168991305    0.29893863780393
H           2.66690294638971    1.68072518214867   -0.52900828661547
O          -2.57698321620707   -1.89247829281394   -1.32871322223952
H          -1.69991953484407   -1.45483670042149   -1.25609475026879
H          -2.39634179990057   -2.83382785426486   -1.30406778866861
H          -3.47318072574394   -1.25655147265389   -0.04877616337665
O          -2.50628026486745    1.40865148046215    0.90137630978749
H          -1.67666236317499    1.15384257860848    1.33169129297327
H          -1.75023063793915    1.47786874781047   -0.45229157502589
H          -3.07872403336351    0.60487349629367    0.90370101740692
N           2.45071489011909   -0.15570576015995    1.37179789519134
H           1.43480748817710    0.18633978649694    1.30999939827799
H           2.52388199551598   -0.89088299444872    0.60868035883759
H           3.03209186413140    0.66545709681276    1.07898033436091
H           2.69460614858451   -0.51262467219778    2.28877678079411
