    26
        -50.45467981  Gyration_radius:  2.51296708481 Dipole_moment: 2.484
 S           0.40156933171451   -0.34439009337486   -0.99807214054523
O           1.66857500896593   -0.08285573343459   -1.87055501469677
O          -0.19574444654359    0.93360484866190   -0.66903469297185
O          -0.51202477381735   -1.20531985332518   -1.72755095628143
O           0.92067803925732   -1.01852431905771    0.20621480094841
O          -0.94660477168673    0.36158019996080    3.21589241838900
H          -0.41604765809305    0.28418820295214    4.01164445131863
O           2.72302456017472    0.70530020761986    1.17139173493095
H           3.22069355677519    1.01772931229827    0.41388311737982
H           2.16605786494495   -0.02299929409875    0.83587967802476
O          -2.46093715559034   -1.77406829207569   -0.11352137232759
H          -1.78299126774921   -1.50964368518103   -0.79233470539752
H          -2.77995568828848   -2.63844210348023   -0.38280133014862
O           0.36612146073461    1.95994860836181    1.70821381874667
H           0.05413075278942    1.71948861767368    0.81107563301884
H          -0.48192574392560    1.05699991553833    2.63461239413642
H           1.29794440676794    1.66774883716291    1.71579834188176
O          -0.83469293807843   -1.71278557359302    1.83467955925401
H          -1.61637677094336   -1.75018797548302    1.16994324017951
H          -0.03291166501326   -1.49463355497610    1.21102239798585
H          -0.94232709135368   -0.84587266866461    2.44888012280320
N          -0.01109350551872    1.02494493272022   -3.51322957060440
H           1.27497097638350    0.36878977968448   -2.66436129807967
H          -0.13190434340910    1.62279376658954   -4.32162470333122
H          -0.56108058209918    0.18360855458438   -3.64193339334007
H          -0.38714754639087    1.49299737293432   -2.69411249127932
