    26
        -50.46584227  Gyration_radius:  2.39854010841 Dipole_moment: 4.271
 S          -1.57823187967917    0.88698203890602   -0.49992263843877
O          -2.52861685622903    0.68424291274467   -1.57114545662491
O          -0.23062915414345    1.16822048183555   -1.04759018961492
O          -1.92935402710910    1.82707722175365    0.53469190555254
O          -1.46272082956182   -0.54739746635003    0.15618405494378
O           2.01052362987004   -1.27740736829304    0.58398029708482
H           2.90660134939476   -1.59063635046166    0.71143491440938
O           0.05353747337997    2.09993919192584    2.20802692114428
H          -0.68719693333279    2.07111180776776    1.54787639513632
H          -0.24683838895199    2.68561022656955    2.90492957877925
O           0.09308045432065   -2.55372150550421   -0.93723202738784
H           0.86348847922163   -2.17508987048495   -0.47112371291031
H          -0.65482121141318   -2.35366228601339   -0.35895068146135
O           1.99154660170412    1.32257229430606    0.35402920120095
H           1.64496925384751    1.73688106240254    1.15621265063339
H           1.23671204932961    1.37460549744456   -0.27014307204358
H           2.07385464714879   -0.28980106747856    0.44263903085425
O          -0.05285987719785   -0.60090950149100    2.30288439094724
H           0.75471845605777   -0.94227474722563    1.88255686719059
H           0.08424749928605    0.35563581447546    2.44936802450240
H          -0.99295567204073   -0.53234845615708    1.04773030162665
N          -0.66117293748641   -0.70504318361137   -2.67778903823798
H          -0.36914024919124   -1.56852067905510   -2.13472962235257
H          -1.65149176384310   -0.42434702663002   -2.44781511569204
H          -0.18624541214465    0.12084618319976   -2.19262126013300
H          -0.48100470124886   -0.77256522457308   -3.67348172910305
