    26
        -50.46584233  Gyration_radius:  2.39855729645 Dipole_moment: 4.271
 S           1.38987833879314    0.68504596271801   -1.06162838451553
O          -0.04698695485543    1.31392596067453   -0.85926591826241
O           1.59008701268978    0.77215172447071   -2.49132192436686
O           2.31440036366742    1.39477171789902   -0.21374847620357
O           1.25232399320721   -0.72927338977642   -0.64193495029628
O          -1.90744992317187   -0.87077548797079    1.27345842180559
H          -2.50617016175774   -1.39519565697056    1.80623501376834
O           1.79822322821043    0.88946519244083    2.29328643613921
H           2.06227503451853    1.04087229209905    1.34851395988077
H           2.39987362609674    1.42185882005841    2.81617929602291
O          -2.36595670128297   -0.11140694361433   -1.34057876344138
H          -1.97321574201780    0.76849556344506   -1.26727158456611
H          -2.29785170791877   -0.47927211902862   -0.43828720137706
O          -0.71659696187306    1.60772446559501    1.60319809356951
H           0.12826984215647    1.39166753787752    2.04447497773549
H          -0.25193336367402    1.51535604893746    0.10679648477415
H          -1.27293416171107    0.81165168309624    1.64984273865135
O           0.56352820259709   -1.55749012668200    1.75954385444174
H           1.00893669935182   -0.88509160210420    2.29322942566111
H           0.90647569645396   -1.39099006183018    0.85586976012787
H          -0.98827011544916   -1.21848822015669    1.45635990924513
N          -0.24943380609410   -1.02687803808597   -2.64365515257281
H          -1.19861215714954   -0.72329674816213   -2.27943308485931
H           0.33687267619068   -1.25482936678114   -1.77888028108595
H          -0.29815339613785   -1.77082106233236   -3.33108174153801
H           0.32242043912213   -0.19917814575641   -2.95990092873885
