    26
        -50.46428343  Gyration_radius:  2.66507537276 Dipole_moment: 4.529
 S          -0.35609933759721    0.69398618748749    0.28038118918202
O          -0.36620566672097    0.45814378628120   -1.16328749389116
O          -1.81171511922849    0.80284980483702    0.77244123454139
O           0.26852039125002   -0.45298419088727    0.97064108023759
O           0.33208866257365    1.92898255510628    0.59956387942942
O          -2.86773534692861   -2.80940194474933   -0.87351553641779
H          -3.82157327409587   -2.90546093693372   -0.88363481242637
O           2.05085432848701    1.34160174322466   -1.63807997067876
H           1.13068974200868    0.98534250069755   -1.61399733640824
H           1.95354194099716    2.25896288418026   -1.36690205983929
O           2.42276414732369    2.20378338609017    2.15494571810520
H           1.60423519213009    2.25444328390255    1.60401475730640
H           2.12192114365393    2.18685989167621    3.06487429736964
O          -2.31187341564438   -0.74311373340115   -2.47099585352861
H          -1.64242169102655   -0.23765563593201   -1.95869026736761
H          -1.90360812281683   -0.92174710961063   -3.31998045230264
H          -2.66382943215637   -2.07683479310062   -1.49959740326243
O          -2.10005409034959   -1.64249432383854    1.40490147964047
H          -2.08256701935334   -0.13167684616190    1.04850990220708
H          -2.37861812030908   -2.15309753327198    0.60768939881514
H          -1.13142499273640   -1.63699470539576    1.40075182452908
N           2.75244059930850    0.09480098095935    0.57976801465776
H           3.46688727800560   -0.62394187961572    0.60598508399001
H           2.90371043443638    0.85490377607619    1.28482303703255
H           2.66205321962023    0.55355297859811   -0.37389800399666
H           1.76801854917716   -0.28281013620799    0.78328828308290
