    26
        -50.46428343  Gyration_radius:  2.66498308641 Dipole_moment: 4.529
 S          -0.46705712223974    0.12394410462166   -0.67358594896413
O          -1.05495654319991    0.43699431218014    0.62877932890566
O          -0.45757795654290    1.40375015507329   -1.53082961379213
O           0.93355151737078   -0.31188064316739   -0.49884724076404
O          -1.24278111228295   -0.88747491986510   -1.36349132147856
O           1.53637486899154    3.56927014313727    1.33309715934422
H           1.50155881504595    4.50522024507598    1.12832474804363
O          -1.77012123555905   -2.00494413640839    1.24021490269169
H          -2.39747478516701   -2.18095828462290    0.53310085395820
H          -1.56623282461334   -1.04378813693403    1.14634509552095
O          -0.38766083280162   -3.21582448759665   -2.20783335556113
H          -0.82256568124364   -2.35250577305283   -2.00381639123998
H           0.08528876926079   -3.07979775191886   -3.03035106325450
O          -0.98591286535188    2.80968224059430    1.77076584288431
H          -1.25056279562283    2.60813077654904    2.67004799076291
H           0.61057282870127    3.30358641665477    1.53924621245713
H          -1.05261768658769    1.96029050975306    1.28064823996612
O           1.88820898529793    2.16402173056007   -0.91273200940384
H           0.43918489398994    1.84182583595076   -1.36686163778134
H           1.84919718175675    2.69020352407037   -0.07879310785713
H           1.99214898456369    1.23841051999758   -0.64673695686822
N           0.55112897429700   -2.75028616601294    0.22924277826182
H           0.31825031203715   -3.19938391616716   -0.68828171526492
H          -0.35823612121551   -2.61290516254079    0.76047456523745
H           1.24566326967241   -3.26248590104345    0.76119555614104
H           0.86262817144740   -1.75309523487339   -0.01932290195429
