    26
        -50.45895650  Gyration_radius:  2.39169223071 Dipole_moment: 7.104
 S          -1.49901883552456   -0.18773312060061   -0.47986537864411
O          -0.53572571358546   -1.04460865573688    0.24651736283178
O          -1.23133676563104   -0.26771311574336   -1.90482887704700
O          -2.85549577128331   -0.44234535716249   -0.07737130027114
O          -1.19864869122285    1.27492105188182   -0.00566264663686
O           2.39695596368644   -0.81802243826447    0.12455049033102
H           3.27746043460765   -0.92360117971360   -0.24044700193281
O           0.88805739951739    1.19895214677323   -2.70849164740549
H           1.39911932921871    0.46760364912941   -3.06493961306218
H           0.00267940334949    0.82314057649570   -2.53835999819063
O          -2.60969490152220    0.26667356657470    2.43295485390353
H          -2.75918896877065    0.09675175545696    1.46896014248244
H          -3.14111996360881   -0.38830026486394    2.88996624105832
O           0.96429927397837   -1.78558415236624   -1.95705699233141
H           0.68686937336611   -2.67504946278944   -1.73212573479999
H           0.13583894656397   -1.25780615193691   -1.96096846057165
H           1.78431432930070   -1.22198901364234   -0.53293179896045
O           1.35090723564846    1.62790976230988   -0.10870487647578
H          -0.22038680098842    1.47195412926545   -0.09490583673959
H           1.78152741171204    0.75699455651861    0.05317687666077
H           1.35420294376259    1.71951206474912   -1.08500737176217
N           0.03541077796757    0.27889258200225    2.29650429141258
H          -0.07945147925326   -0.38783744449040    1.41070109920085
H          -0.97360467364725    0.41922779661661    2.56467905660190
H           0.58939970020313   -0.15096037542945    3.02930906434607
H           0.45663004219919    1.14901710503001    1.97434805600261
