    26
        -50.45730801  Gyration_radius:  2.49210722212 Dipole_moment: 3.248
 S           0.66779075045016   -0.80215999537120   -0.29287097447215
O          -0.36091384206944    0.05828009505268   -0.89782333459241
O           1.97988535152035   -0.51519790588517   -1.10913857675194
O           0.97831118900636   -0.37179783316941    1.06274856054498
O           0.32575127898050   -2.19627373667991   -0.41256743234812
O          -1.64066515722465    2.39482521254907    1.82779932894587
H          -1.24261167695406    2.82608658619756    2.58671201616319
O           2.14598892164433    1.90676235667481    0.64017263334663
H           2.77634462386836    1.70396521248096   -0.05549111508088
H           1.82179973723678    1.02629153327683    0.95210870566232
O          -2.07244875686607   -2.22520540344370    0.81852276915906
H          -2.08241079652088   -3.05252795926365    1.30479787665117
H          -1.24861156555175   -2.23176762374098    0.29566691847848
O          -0.19601607777812    2.42095596832989   -0.23533974695661
H           0.76242665472519    2.39719155034559    0.11675520031951
H          -0.33456253496777    1.41724796356252   -0.59032221441416
H          -0.83052721065784    2.48468370565290    0.59563928429868
O          -1.35472862739202   -0.11373696783995    2.37618937583267
H          -0.43836920176142   -0.23302722399525    2.06805460438174
H          -1.65093376566277    1.41260431436384    2.04354053444814
H          -1.86070652633399   -0.77916956809623    1.87218336336309
N           0.75132159500763   -1.54608478209145   -3.15060038025304
H           1.74180559373062   -0.85959903017791   -2.01661446252408
H           0.40019106830765   -2.20997893239416   -2.46601835235941
H           0.01052591479636   -0.87673464928560   -3.32012826208107
H           0.95136303046209   -2.03563289703976   -4.01397632977071
