    26
        -50.46223554  Gyration_radius:  2.40037507091 Dipole_moment: 9.383
 S           0.76612363947351   -0.50949509685491   -1.61203918328268
O           1.77587218275121   -0.26491006625976   -2.59208972368844
O           1.51332627627202   -0.64664136577683   -0.23906510467779
O          -0.15100146122571    0.65574996150244   -1.46625919761033
O          -0.03295718244627   -1.71474017714412   -1.77794209054581
O          -0.52602029982918    1.04815869990359    2.12288155096778
H          -0.49007255978590    1.56066078918836    2.93120562997640
O           3.17870072882199    1.37767536260489   -0.96155256473292
H           3.64650003547258    0.70179361750999   -0.46647377745035
H           2.71242990967366    0.88878468598966   -1.66624151989096
O          -1.92294518597573   -2.22614171741531   -0.15665012858316
H          -2.31601918910651   -3.06223578115265   -0.40982855956219
H          -1.18466785402850   -2.06186702735510   -0.82790197895322
O           0.95219001050881    2.22123933038629    0.35314744159156
H           1.89429140649354    2.07107651086631    0.14413893810736
H           0.51363991970838    1.82368257841804   -0.42422739579609
H           0.13465132772137    1.48241255867778    1.49621645487639
O           0.03686316790384   -1.61993327616623    1.67246668681859
H          -0.74006622128741   -1.96972704037337    1.20657698022293
H           0.97827181779941   -1.11018118453364    0.45730180756793
H          -0.19550244489243   -0.74531461582509    2.02625991195456
N          -2.15177464640276    0.42748379315533    0.05470405918941
H          -1.75253209211271    0.72670006828114    0.96641607996460
H          -2.37162361561913   -0.58531545749885    0.05828071943171
H          -2.94911864192229    0.99250322574617   -0.21304520642581
H          -1.31855902796185    0.53858163412466   -0.67627981947104
