    26
        -50.46212378  Gyration_radius:  2.38594428556 Dipole_moment: 6.899
 S          -1.40539852164280    0.23981236387516    0.13966778580890
O          -2.26577788405928    1.42628522472425    0.15073154600510
O          -0.88034397015872    0.19782367905218   -1.33379376494838
O          -0.21066977104368    0.45079379857900    0.97244040701913
O          -2.07601668013610   -0.98556081360461    0.46539003814319
O           2.45001885884069   -0.75746636632107    1.05110107830247
H           2.10216598867765    0.09924026825627    1.31573671523061
O           1.30249063660076    1.91855683201312   -0.52893701344636
H           1.73514177446849    1.27365088752451   -1.09644021724980
H           0.78562341876212    1.38571347927757    0.13039048446411
O          -0.43619993233788   -3.06408650502796   -0.03831554921020
H          -0.04677235590489   -3.00767961276405    0.84800797895516
H          -1.20384483225996   -2.46492139508870    0.01263947981319
O           1.13300305618860   -1.32282712855369   -1.24853271427831
H           0.64598216164240   -2.13656747612733   -0.96805685903687
H          -0.07214378231565   -0.43323630317598   -1.35924928617422
H           1.71170781608192   -1.11046437206122   -0.48235817494476
O           0.19144237965633   -1.80750149203664    2.36026183507924
H           2.00700682028456   -1.39415230294322    1.62660222518292
H          -0.04156644476189   -0.97593859356236    1.89682272502447
H          -0.56770534300141   -2.01827453620993    2.90589032892249
N          -0.96919076821302    2.93644275324776   -1.38823994502019
H          -1.18612057599716    2.64524960872857   -2.33696928069360
H          -1.61237095233129    2.32983792403309   -0.69197328217736
H           0.02436033142345    2.64212858067186   -1.13967462809998
H          -1.11482142939591    3.93314149721021   -1.26314190263121
