    26
        -50.45787211  Gyration_radius:  2.57065739899 Dipole_moment: 7.858
 S          -0.40656514597157   -0.16772634757171    1.02628652054916
O          -1.04630383359008   -1.31655885349886    0.16275046136164
O          -1.40556197465560    0.08297075452475    2.07078772064104
O           0.86759726201427   -0.62081069831954    1.52745941527305
O          -0.29515972193725    0.98269544051858    0.13462284297456
O           2.30664983088629   -0.94373925698755   -2.20022534758151
H           1.92051451251769   -0.82522816554534   -3.06853588923061
O           3.16813287376733    0.79641749163419    1.45035380648663
H           3.85059865558675    0.12733742134380    1.52777200394542
H           2.31951744480719    0.33691842560689    1.59433880201555
O          -2.48934405894247    1.85719664916891   -0.92634086484278
H          -2.51853969472545    2.79640237863075   -0.73429897729822
H          -1.59015642466087    1.55408260434441   -0.62937832517696
O           2.12131408698818    1.39410428083831   -1.00791003074653
H           1.21431828417437    1.34624638120152   -0.65665952531085
H           2.68361864382822    1.36483395606567   -0.21296019104791
H           2.30792168978131   -0.04336739660926   -1.77759818218476
O           1.11870715474390   -2.48662882318062   -0.40373471538105
H           1.45262401450452   -2.09227337338326    0.41471565386264
H          -0.25499500188406   -1.86606676951565   -0.16206348325238
H           1.58181063527369   -2.00425907754013   -1.13333769894494
N          -3.43302421516465   -0.06066250276213    0.59810229336010
H          -4.36133347110174   -0.05649657690576    1.00760170733042
H          -2.61037730951936    0.01746923576423    1.35594334078558
H          -3.23960360920330   -0.92825820449692    0.09971987206932
H          -3.26236062749801    0.75540101668613   -0.05741121965402
