    26
        -50.46277162  Gyration_radius:  2.42506074337 Dipole_moment: 6.141
 S           1.17085018487188    0.94641177762846    0.51727470553091
O           2.03159462759439   -0.14633254317712    0.92889915282632
O           1.26014838057003    1.16364324868423   -0.93764912800157
O          -0.31634785974139    0.47556673702746    0.78632172322138
O           1.28756816900323    2.16494766161170    1.27200892350075
O          -1.02275228006541   -3.12923358916556    0.57221134166482
H          -0.47929106804598   -3.85508184867975    0.26020008643552
O           1.68337246042625   -1.52093388357048   -1.33709232636494
H           1.91768686244135   -1.14262797441887   -0.46463453129274
H           2.07230807233890   -0.91229082574499   -1.96952526488880
O          -1.05318675501421    3.15757793538406    0.61081801993444
H          -0.12727437381681    2.91108419548658    0.86247562393772
H          -1.58763801695226    2.88507811408832    1.35997388043629
O           0.51368108103645   -1.82434655882736    2.35791824721492
H           1.17166870730151   -1.27921094298222    1.88047730668542
H          -0.00790314130784   -1.20392880141747    2.87020884091927
H          -0.49685164335887   -2.69552806495594    1.28240161192458
O          -0.93792912436462   -1.11081122566434   -1.12807703775041
H          -1.18275347804527   -1.90365164785488   -0.59246739711312
H          -0.57901368764326   -0.20453390095800    0.09330311780044
H          -0.00547735781422   -1.29932066235607   -1.39278581823907
N          -1.10511353828240    1.71101364610274   -1.59941451935086
H          -0.02870936083993    1.51098606174518   -1.46280219652208
H          -1.30869659590727    2.30809018098395   -0.74645007646816
H          -1.30677408207786    2.19691327746462   -2.46654401784207
H          -1.56316618234280    0.79651960356346   -1.55705027822474
