    26
        -50.46277154  Gyration_radius:  2.42523876192 Dipole_moment: 6.144
 S          -0.95400757226297    1.27188494078498    0.09136629056726
O          -1.32835782933972    1.03904639017091    1.47341052608808
O           0.54999235855105    0.80018168924167   -0.05456347678853
O          -1.73012969542981    0.40589222179746   -0.81398743050095
O          -0.92667360035784    2.64466826063990   -0.33629446616469
O           1.70041926370393   -1.91885602984375    2.14543244058046
H           1.21027162294386   -2.49527738327985    2.73466332542793
O           0.64412083254047    2.28677620603512   -2.41115733999126
H          -0.00718672705422    2.51808028845684   -1.70138686884619
H           1.49879875976244    2.51322828256850   -2.03781446941232
O          -1.81117529697980   -1.56348006555144    1.09822341435909
H          -2.54307271177699   -1.51465786933603    0.47878985543865
H          -1.68649123317366   -0.63876422248146    1.39563153034958
O           0.93989515285409    0.57595090286841    2.81631161784506
H           1.48720254488983   -1.00351170295267    2.43827675980965
H           1.52024416695491    1.22814476608452    2.41955074777946
H           0.05294682338489    0.75573054172324    2.44346416610321
O           0.50279845022858   -1.75785804499237   -0.20214749305627
H          -0.39920102117339   -1.85196573690263    0.18851777565006
H           0.58428717045284   -0.20513291613423   -0.04738079479771
H           1.09821084160707   -1.96399383037134    0.55844080055461
N          -0.05945775268665   -0.25443494910977   -2.57598451342629
H          -0.36171977115523   -0.59349609396087   -3.48279184537520
H           0.52028287502599   -0.93991923142498   -2.08414211333161
H           0.40098289652535    0.69943432495153   -2.63579539780760
H          -0.90298053804664   -0.03767073900344   -1.89863304107558
