    26
        -50.46277165  Gyration_radius:  2.42494473989 Dipole_moment: 6.147
 S           0.94669562226804    0.71830049729388   -1.05952961683564
O          -0.30286380484337    0.60746084526473   -1.83286789815404
O           1.78882708646113   -0.44379427502494   -1.27151187082722
O           1.58372309927093    1.99900904723445   -1.20840702638864
O           0.50955137631828    0.68735985694190    0.46154681982378
O           0.22394778017186   -2.60640921008088    2.07997932839692
H           0.25521140839565   -3.48923933716027    1.70654683252932
O          -0.27536069233670   -2.12216183686237   -1.53301778461785
H          -0.68683156841165   -1.76620613146224   -2.32406800532629
H           0.57708616647263   -1.64408306587341   -1.47027389766093
O          -0.17113203216810    3.37473643082530    0.17970756797800
H           0.25122021743038    3.39642994934256    1.04130290964528
H           0.50492034081024    2.96706269832074   -0.41892752819079
O           2.43359278402960   -1.37793126278511    1.15208728878010
H           1.06819824048706   -2.17842160256033    1.80942520083789
H           2.29095575195885   -1.11726712684945    0.21945298443066
H           2.59337397369257   -0.55869810756680    1.62424180017888
O          -1.36118098928835   -1.05373475959272    0.64915048203025
H          -0.95471739388827   -1.63848441395279    1.33354390150455
H          -0.17892421469870   -0.03414057047214    0.59387090941512
H          -1.13956996895765   -1.51255540191900   -0.19671504281732
N          -2.04092839351478    1.56815140510027   -0.28730666448743
H          -1.42743773870782    2.35683000712874    0.06980615893802
H          -2.16020949754803    0.82076896534753    0.40192974413611
H          -2.93004245214162    1.90257118814675   -0.64265795573426
H          -1.39810510127345    1.14444621121407   -1.07730861754345
