    26
        -50.46460180  Gyration_radius:  2.41159255926 Dipole_moment: 2.667
 S          -1.29307369318350    0.37442020103380    0.36818358134052
O          -0.69437008191373    1.61659044343197    0.87464474106092
O          -2.81972944097443    0.58829622646155    0.25499322397517
O          -0.77847599661272    0.09270209467196   -0.97800154852202
O          -1.06427496496540   -0.74114983946676    1.26460432858143
O           1.99310483133119   -2.30308255213714   -0.16095599042398
H           2.48972095061406   -3.08305994849168   -0.41070900085234
O           1.74985308380090    1.26413471314852    1.21542431353476
H           0.74483294104704    1.53736892453762    1.15711803656547
H           1.94866318912703    0.95349859296817    0.23130067505897
O           1.85473457397598    0.26360673278325   -1.08222063457476
H           0.87662503520077    0.25272908198584   -1.20329398956890
H           2.09504916664547   -0.66423071718443   -0.89747470270256
O           1.39636566733141   -1.01817544209343    2.18132194128757
H           0.42422601880134   -0.99844927022834    2.02867059466644
H           1.75121181945305   -1.59898292272527    1.48189512036105
H           1.71816226314977    0.35578303802448    1.75364288770897
O          -0.55674576334958   -2.54087159435555   -0.70679034174466
H          -0.96384864920821   -2.49030755060771    0.16744077730176
H          -0.69568710572446   -1.63954712959967   -1.05918117267639
H           1.04033777749846   -2.48305867174454   -0.40114649829769
N          -2.27474322396056    2.57710187896599   -1.31680177399594
H          -1.59543808725527    2.88125256384132   -0.62758231288670
H          -1.77452637922168    2.04505470724725   -2.01852585022235
H          -2.87506660742444    1.37118493773197   -0.36402441150397
H          -2.69690735417393    3.38719151179756   -1.75253199348074
