    26
        -50.46460206  Gyration_radius:  2.41140574883 Dipole_moment: 2.666
 S           0.32214034188059   -0.59461521489553   -1.22115162832582
O           0.34377889478120   -0.83135000949830   -2.74853174351289
O           1.60572508898364   -0.04171500091129   -0.83738643231128
O          -0.77188427220660    0.33983611756996   -0.92737683962149
O           0.06079205661550   -1.88174457849789   -0.56331449901598
O           0.69924582783316    2.22228655614857    1.96786103875732
H           0.79573796403479    3.05747757392543    2.42674042815557
O           0.16831691067344   -1.57157913621050    1.90783512422903
H           0.13097720780141   -1.85060159266122    0.90334032508128
H          -0.55371501683128   -0.80924439091053    1.94921717494140
O          -1.33067172826053    0.42340696316456    1.65235095797427
H          -0.75233918178258    1.15896606451409    1.93027426316679
H          -1.28614312694770    0.42401489850672    0.66775234621919
O           0.72018255335557    2.51842185519035   -0.63373956928330
H           0.72124881046832    2.42987083376891    0.99100036991021
H           1.50525792095249    2.02006966489885   -0.89444641079410
H          -0.00511966138829    1.89567409635131   -0.83840556691140
O           2.16885953661580   -0.07601890744428    1.74202502055201
H           1.80054449167926    0.79414953804608    1.98631829062109
H           1.08099990118730   -1.04375641440387    1.97389505977873
H           2.17043370564017   -0.08605284761762    0.75782323418104
N          -2.06234367991625   -1.76138226044410   -2.48725371243718
H          -0.56376754910734   -1.21654179452405   -2.91258108224274
H          -1.72028056617944   -2.31966069009685   -1.71241544974200
H          -2.47128256214385   -0.92158638757422   -2.09580547288088
H          -2.77669390772501   -2.27832493636481   -2.98402523650678
