    26
        -50.46460213  Gyration_radius:  2.41135545465 Dipole_moment: 2.666
 S          -1.01130388487591    0.93459172540552   -0.22905549015198
O          -2.32858943613308    1.52845043697448   -0.77806661993603
O           0.06287132345180    1.90736828542218   -0.46909786762759
O          -1.19604695878325    0.67042138218158    1.18399250491707
O          -0.73212965844687   -0.30097101810938   -0.97193754051713
O           0.89144390883501   -2.35921107188398    1.71445718164981
H           1.01847892946874   -3.22286927720114    2.10861228328722
O           2.17726709007142    1.05271108292400    0.53733083458771
H           2.17742191843332    0.13830184596990    0.01976370899044
H           1.36385243198743    1.54455051459704    0.10734326907507
O           1.73833862216572   -1.14884334835428   -0.58204748118191
H           1.59772944525012   -1.74687715535154    0.17647650591759
H           0.83239051749143   -0.90084111242903   -0.88066100760048
O           0.99740173507579    0.23304943809722    2.58736532548388
H           0.10724791785870    0.47955966504145    2.24737184579009
H           1.04865623487610   -0.73621657662451    2.48521877947161
H           1.81630850605067    0.78858860441322    1.49430783579844
O          -1.56772866074234   -2.00414490222637    0.88795669427614
H          -0.06610688564619   -2.31215360308709    1.43392628475915
H          -1.86683072001569   -1.26564829880414    1.43374777227307
H          -1.35484828880898   -1.56874667180504    0.03890106589147
N          -1.12588889571228    1.68888845909994   -3.06925442760227
H          -2.10245351716643    1.68445043793604   -1.73906033843290
H          -0.91962782079065    0.70168189532930   -3.16194814577516
H          -1.21402382294712    2.09775271567474   -3.99082203291663
H          -0.34383002089818    2.11615655684087   -2.58482096037763
