    26
        -50.46460222  Gyration_radius:  2.41126752091 Dipole_moment: 2.666
 S          -0.55065683638074   -1.09054616352353   -0.67566030916612
O          -0.87323426570357    0.33313129230603   -0.83542080320926
O          -1.31928921237727   -1.87409831885380   -1.76406926492166
O           0.86513008954638   -1.33541382949784   -0.86602406242098
O          -1.01606098685417   -1.55706224954406    0.63712645948383
O           2.38698210782553    1.88853180598430    0.18545651256971
H           3.02931641056677    2.58659593053504    0.05309072080108
O           0.30732595052391   -0.42587300480871    2.42126117535843
H           0.08870101353595    0.55311621070769    2.10895450598137
H          -0.29150274272057   -0.99502383001142    1.78415640071935
O          -0.12058692194916    1.75544513083205    1.25862173934729
H           0.77414585355180    2.02197265001452    0.97383197725523
H          -0.52576887895100    1.33729384863993    0.46341033239577
O           2.44536931302853   -0.67476510091469    1.14343787505730
H           2.00193571844686   -1.07420671427252    0.36078002444615
H           2.64145769803186    0.24494374202516    0.88213571743156
H           1.27975266771536   -0.58903025052309    2.04188679985990
O           1.36683005783937    1.04516211849906   -2.07389349652756
H           0.43823526190874    0.97570097208754   -1.77618876009040
H           2.05624649330867    1.63006140476289   -0.72097641008031
H           1.64930636451788    0.12194298483404   -2.09827547529380
N          -3.48783746323470   -0.95064318533044   -0.68420707988564
H          -3.11700668087784   -1.23713846465986    0.21543493452572
H          -4.49329473111362   -1.06607322426025   -0.68524380417779
H          -3.26565222961326    0.03036490794375   -0.80260083862033
H          -2.26984406057066   -1.65438866297859   -1.54702488084328
