    26
        -50.45730774  Gyration_radius:  2.54970344089 Dipole_moment: 5.133
 S           0.80256647532627   -0.38306962977063    0.62931762055590
O           0.03991025376019   -0.07337167346421    1.92425721669396
O           0.48858791755427   -1.75563535817539    0.19661530442449
O           0.32528469681132    0.55590658816467   -0.40784572865196
O           2.21187117472028   -0.21159717349859    0.88684582990657
O          -2.64278138302258    2.54805937541590    0.85195828987664
H          -3.03226916199043    3.06456002092678    1.55917912801572
O           3.59499206601371   -0.60417702436411   -1.29825852220957
H           4.27401119565103   -1.24097680108465   -1.06783541042844
H           3.16371372869666   -0.35616170778530   -0.44056119707318
O          -1.99941849523504   -1.86768656281089   -0.63408839391607
H          -2.39379456362889   -2.67703965130182   -0.30339953274235
H          -1.06942791652287   -1.86728447728009   -0.31056829231787
O          -2.40409402954817   -0.06267476824210    1.34557530335442
H          -2.58776634870008    0.87465729578676    1.09773394471156
H          -2.43219520992862   -0.58675659288971    0.51962864789673
H          -0.98583397273104   -0.08939773771481    1.73371663221781
O           0.02715252448859    2.71909139289103    1.11096206736127
H           0.28151193601076    2.30784876217139    1.94144342689932
H           0.20171965536452    2.03784581057522    0.43253439389267
H          -1.67641218367255    2.73330718491670    0.87350692514878
N           1.16318165236985   -1.03123511048974   -2.19413561642295
H           2.20875851604360   -0.91408800667869   -2.11602309879297
H           0.82013778038308   -1.22111531656259   -3.12953444753157
H           0.88265190297418   -1.73567297745658   -1.47268717439644
H           0.73794176881685   -0.16333586128056   -1.72833732646512
