    26
        -50.46223561  Gyration_radius:  2.40040000685 Dipole_moment: 9.370
 S           1.58391091520861   -0.70105343993705   -0.66759837766784
O           1.14866993646577   -2.08988074791842   -0.64589783628220
O           0.62147214291306    0.08874012042549   -1.48626522036034
O           1.44946221601600   -0.16096952206526    0.79973573108436
O           2.93488456523380   -0.45447847907171   -1.06019255495896
O          -1.72849383500796    1.41666413159156    0.94205664405824
H          -2.20403474554473    2.13425043457292    1.36194058261643
O           3.00248902147083    1.97098353551414    0.13833965772990
H           3.19124072705752    1.67198576597558    1.03031681542307
H           3.06355011428156    1.16565333997404   -0.41014268991783
O          -1.25549351163269   -2.66442801103796   -0.05241325047618
H          -0.29145470002227   -2.48334895762144   -0.29836677864792
H          -1.34858289996680   -3.61766048860496   -0.07151426437588
O           0.34564457768369    2.40527299394646   -0.24654405600890
H          -0.88280572982514    1.82828745752842    0.57678727193020
H           1.25405451405649    2.51203809586236    0.09596118749273
H           0.46076530391715    1.66965971038333   -0.87919628900062
O          -0.72548677180328   -0.92655140059519    2.01027884759822
H          -1.20836381900325   -0.11084177081596    1.79671395621385
H          -1.06811595159868   -1.63442207301619    1.44068716418782
H           0.67141184662181   -0.53674938302646    1.28907571711826
N          -1.84849255613310   -0.29871729969958   -1.14314125812716
H          -2.41733166908397   -0.13367282350500   -1.96526777515278
H          -0.76730135599213   -0.15260615702734   -1.36808484905273
H          -2.05993430121883    0.37743615364708   -0.38270915699196
H          -1.92166403409271   -1.27559116548379   -0.80455922843101
