    26
        -50.45706878  Gyration_radius:  2.557722356 Dipole_moment: 4.841
 S          -0.32113931992005    0.67633034286165   -0.66044432281987
O          -0.20537010727766    1.79140782312863    0.38153322545850
O          -0.53558556529455   -0.59889471225578    0.04401942647282
O          -1.47564224572606    0.98115093434669   -1.50018846691682
O           0.91104091251298    0.60819136429196   -1.44667581994176
O           0.09148877848627    0.00510997396046    3.82803669994845
H          -0.11210132500853    0.53297507561280    4.60161802657520
O           2.82834242067337   -0.28203481046008    0.15322093328173
H           2.12050247912565   -0.03713679198106   -0.48043824049294
H           3.63700439004303    0.10094265634277   -0.19234528178693
O           0.53153409500635   -1.07187067167861   -3.43068578795868
H           0.78668234748971   -0.45832929648059   -2.69734152006371
H           0.57346422113003   -0.54563780147203   -4.23135770971080
O           1.60972171422148    1.22050716874636    1.99391902453972
H           2.14169777131195    0.57569636650261    1.47562079141371
H           0.57900318606824    1.59352045549615    1.06575196619236
H           1.15548295012506    0.70914539626504    2.70500250621649
O          -1.95213750409559    0.28197964283536    2.09768458030491
H          -1.93365295789603    1.21088289229303    1.85019295306839
H          -1.47907265721885   -0.17413612273811    1.37133978380456
H          -0.72242044980868   -0.00691316961076    3.27603174366662
N          -1.68697483805555   -1.47492497179077   -2.06794980155695
H          -0.90453752148566   -1.56579679006636   -2.76610795207407
H          -1.25815357199173   -1.56763036753947   -1.11087333051190
H          -1.89812051361922   -0.42219276868373   -2.02196792055766
H          -2.48105669903677   -2.08234181770200   -2.23759549657242
