    26
        -50.46577053  Gyration_radius:  2.40755169888 Dipole_moment: 3.804
 S           0.68104337707984   -1.09374164774921   -1.09515333605401
O           0.23176993174635   -1.71632619407855   -2.31351513596310
O          -0.62939278768250   -0.96636839269574   -0.20639968951625
O           1.64255844046704   -1.84496874692390   -0.32640833804818
O           1.12410075433570    0.30042334533694   -1.30805752907717
O          -0.67468268513599   -0.67535037919982    2.88224555837758
H          -1.07417146327065   -1.40931894946427    2.41044144109197
O           1.76495523553023    1.58744027949954    0.95482844167696
H           1.77085210031683    1.20449011469303    0.05763172690531
H           2.02404104057990    0.85555418997909    1.53748440323842
O          -2.09606719547232   -0.64794997451501   -2.64561635815343
H          -1.21351133468035   -1.11032121500563   -2.64942292988939
H          -2.64018695591989   -1.16793191325936   -2.05004279594421
O          -0.83420314486721    1.30337551475151    1.08781281733354
H          -0.64066009441402   -0.12049515720337    0.31771167063237
H          -0.98031973017411    0.82768831741716    1.92973452258837
H           0.11847645312842    1.58884928335032    1.12135592279387
O           1.92888838979192   -0.93011887091990    2.06628692168373
H           1.83186108491612   -1.31117838407483    1.15112259405535
H           2.62544574076087   -1.43561671774751    2.48767442474966
H           0.28729890775690   -0.76744368669164    2.74421260314993
N          -1.07310880059939    1.54294701797187   -1.63847174520744
H          -0.06939007035452    1.12962471585013   -1.59983086934586
H          -1.11504651203227    2.39287093260061   -2.19059992245963
H          -1.65010818184658    0.75345350923002   -2.06626357333810
H          -1.34044249998249    1.71041297884592   -0.65876083524740
