    26
        -50.45496834  Gyration_radius:  2.51169655228 Dipole_moment: 4.597
 S           0.01526036717793   -0.34459586704977   -1.30041665519769
O          -1.13924257909127   -0.83838997161939   -0.52215215568126
O          -0.02095128989440   -1.08756686474918   -2.65958356875363
O          -0.08930455090105    1.07988118425532   -1.52435878801016
O           1.26195720839430   -0.73016562041316   -0.64886151492060
O          -0.66229964884058    1.11343499749775    2.69821708893872
H          -1.49381931460333    1.57975567696400    2.79735939656220
O           2.90458762317551    0.90673756951604    0.75295669470463
H           3.03269831848902    0.34203936380311    1.51859369576500
H           2.45431458528045    0.35605158353983    0.08792776201895
O           1.52410247168681   -2.08304756401398    1.54656728817643
H           1.52042071630649   -1.60240076095466    0.67866028842586
H           1.66560675283468   -3.00865782575664    1.34087390180321
O           0.56523320503714    2.27930456366395    0.77277921306751
H           1.50613618968251    2.02139920598453    0.83088887580454
H           0.27430760706092    1.95031245444684   -0.10135785992812
H          -0.15563442750550    1.59897715955808    1.96673781125493
O          -0.87333756994891   -1.25257799685923    1.88701177386640
H          -1.04614899364700   -1.09983439412410    0.83459500237754
H           0.06467585776724   -1.64192012986804    1.91822461635247
H          -0.80747800844438   -0.28537353156902    2.28594303850469
N          -2.23717578962763    0.18762763061933   -3.11210589696889
H          -0.87302517649790   -0.74184904314036   -3.04752250629298
H          -2.90053472788348   -0.20367204239423   -2.45579196687866
H          -1.74742355334208    0.94324256277672   -2.64015257492856
H          -2.74292528267074    0.56128761988926   -3.90503296008962
