    26
        -50.45572181  Gyration_radius:  2.47904940109 Dipole_moment: 3.364
 S           0.68474007175495    0.94137002959025   -0.26066466006939
O          -0.39812796240175    1.41496805896147    0.57602527735342
O           0.44000036486062   -0.47328244284350   -0.64833404059454
O           0.68683421841181    1.75862747187175   -1.57053610297122
O           1.98241750479735    1.04951869008622    0.38522409438592
O          -2.44326311797728   -1.43547495641719    1.75117619923965
H          -2.73838317837961   -1.10580103253225    2.60177346893256
O           0.95233095628011    0.44825859374356    2.71951130316443
H           0.22805490244257    1.07014979630028    2.56730592244035
H           1.59180083959551    0.68963138229213    2.01124341255255
O          -1.79757655668682   -0.87762902528250   -2.06350182190812
H          -1.91193327141567   -1.82967408211861   -2.07760696856159
H          -0.92346733812676   -0.71089774175558   -1.65890718941731
O          -2.83240147761048    0.44640480504255    0.06509563493868
H          -2.69062593258399    0.05092476417037   -0.81695875974686
H          -2.68060948289860   -0.71655069391455    1.06941252984460
H          -2.02236080998448    0.96797535674511    0.23524922978987
O           0.04932127109242   -1.60624386725672    1.53380522889466
H           0.23289104248645   -1.23489538558542    0.56999518344967
H           0.43530987565843   -0.86510332415201    2.14574822211684
H          -1.00258027642916   -1.59517557336313    1.64916331542393
N           2.94641854284238    0.68073407956789   -2.24799191614420
H           3.76208452726815    1.08677012603599   -2.68756448313171
H           1.52084105888255    1.45172053363517   -2.04059875730190
H           2.84596130612069   -0.27341567552276   -2.56806385636233
H           3.08232293199977    0.66709010270535   -1.24000044631211
