    26
        -50.45627818  Gyration_radius:  2.48793795823 Dipole_moment: 3.725
 S          -0.95146283840578   -0.01315233382608   -0.34187722238394
O          -0.94117243929489    0.31167203600938    1.09178876300402
O          -1.80514719429994   -1.12439270403007   -0.66598559710219
O          -1.49659171832237    1.28936978609416   -1.03348896568308
O           0.41532256387220   -0.17241954425432   -0.83842467056991
O           2.39995974103005    0.01379954933794    2.54676264854897
H           2.64901921908579    0.05168486008811    3.47223633136375
O           1.26229881929065    2.26083635997722   -0.72564377286162
H           1.07864855815908    1.29939028810992   -0.89399328503955
H           0.48812299795676    2.72390110693229   -1.05878889403019
O           0.32342344704671   -2.76752184663324   -0.07882744469571
H           0.73301876800655   -1.98982303963729   -0.48639645039511
H          -0.61957821765232   -2.63587141317976   -0.24687458567336
O           0.89506710353935    1.85754462137682    1.74237475726190
H           1.60203477831172    1.15821367529459    2.08746412971728
H           1.18092931607849    2.14966815994401    0.79350667732857
H           0.05149035983413    1.26601287816273    1.54146327132249
O           0.44466894897243   -1.66379182428726    2.36646405172885
H           0.52242713411144   -2.28024298675495    1.60754809675129
H           1.72357736114001   -0.73040000308920    2.46842871617609
H          -0.24056170211178   -1.03269217496138    2.08988060502719
N          -1.96455624417627   -0.00945921723678   -3.23845183651601
H          -2.07946544358397   -0.78676056340987   -2.59123297765400
H          -2.77828396321528    0.03943733972419   -3.83778938159101
H          -1.73974777295507    0.97948223566209   -1.95598366663476
H          -1.15344157243210   -0.19448526539824   -3.81415929739325
