    26
        -50.46485756  Gyration_radius:  2.56507446776 Dipole_moment: 4.110
 S          -0.08238447009931    0.89810359157029   -0.21242309660671
O           0.31628736551726    1.72474409289566   -1.34474517459240
O          -1.35132090800569    1.53640509536220    0.40929227737157
O          -0.42368427928307   -0.45988710310738   -0.64701308093431
O           0.95319982994206    0.86337078639071    0.81509789227947
O          -1.51235453048850   -0.99092688578615    3.33561497080229
H          -2.03491758696435   -0.97789379215048    4.13876635600151
O           2.46225976402838   -0.98134330868304   -0.25226252283859
H           2.01124257389871   -0.27732410453229    0.27262386183920
H           1.87298688041821   -1.73849610911514   -0.19959765647699
O          -0.13926750164722   -1.26826381130817   -3.13504349924282
H          -0.32222243072211   -1.05975650057695   -2.18779483319173
H          -0.89834375073147   -0.94630815605204   -3.62386815170419
O          -0.28485265236807    1.37207632820733    3.10414713149017
H          -0.98284881255958   -0.15903930325558    3.33693977737613
H           0.31061548194283    1.19369753065947    2.34696106077432
H          -0.92254827906132    2.00726495704023    2.76789890797988
O          -2.58041789089504   -0.62432700917575    0.91912444465285
H          -2.27605104381736   -0.86384898921272    1.82558867005799
H          -1.96307435287411    0.76060413996385    0.64475397544113
H          -1.92743621887089   -1.00675074096798    0.31227707305513
N           1.99064054359489    0.20431199678267   -2.55937307959686
H           2.36554682728031   -0.32226144212981   -1.71731671459494
H           1.37034243679233    0.97353051604174   -2.13397964947475
H           2.72438997348928    0.57002149064785   -3.15554301623824
H           1.32421303161567   -0.42770327961958   -3.06012591380915
