    26
        -50.45496835  Gyration_radius:  2.5116490497 Dipole_moment: 4.595
 S          -0.33478942396345   -0.43315182397066   -1.22972510423720
O          -0.84591134961065   -1.22873216725958   -2.45703190507326
O          -0.05593562240032    0.93104689406309   -1.61910089373766
O          -1.41327576320040   -0.47930209956082   -0.22122030211042
O           0.84310456758476   -1.13885394875236   -0.73788441588052
O           0.21743778650025    1.47254795656336    2.59630620765737
H          -0.40655252093299    2.18163435688597    2.75931669994330
O           1.11125317249157   -2.32659792491686    1.55041015070993
H           0.93366777697366   -3.26345067596414    1.45123256059890
H           1.08268605921486   -1.93961501831501    0.63730690029352
O           3.12985556681909    0.00444681683417    0.16113227363959
H           3.22768836790635   -0.51077988113075    0.96521101440975
H           2.42015850913656   -0.42696776918277   -0.34722911348157
O           1.34838841043568    2.03919790721966    0.36640418511722
H           0.81253818577603    1.75117706763945   -0.39973410530747
H           0.69771637603105    1.71553607171663    1.73730079786782
H           2.16416231125318    1.50390620976828    0.30996009340886
O          -0.82724561558915   -0.76556632857174    2.14965709845826
H          -1.14464523655515   -0.64961708468682    1.12670937392734
H          -0.05640713367969   -1.42427831051505    2.08458648123247
H          -0.40654341686927    0.16112022062360    2.40146097972114
N          -2.63164737632447    0.63828064174863   -2.71871117636470
H          -1.61564887232803   -0.66403346754713   -2.74805519349809
H          -3.24546356525715    0.52600537476769   -1.92205075194595
H          -1.86081001147632    1.23542953163036   -2.43095835652974
H          -3.14378117191455    1.09061746092003   -3.46529350877744
