    26
        -50.45496829  Gyration_radius:  2.51164352146 Dipole_moment: 4.596
 S           0.64727278548888   -0.37628461710696   -1.11796391370477
O           1.20519906047730   -1.13202434884077   -2.35012042073741
O           0.75812712740381   -1.30279057249993    0.02731521365128
O           1.42855662054691    0.81824476850087   -0.88816482629434
O          -0.75531590059699   -0.09526481724606   -1.40269785432137
O          -0.75264424170629    0.83911901644488    2.77225477889475
H          -0.06006640258670    0.86955261663895    3.43412626436940
O          -2.07438933393881    2.20068173573599   -0.82589897432602
H          -1.58214354009306    1.46422276210509   -1.23032182443969
H          -2.85769665897443    1.80893132714749   -0.43291577456026
O          -2.82166027081062   -1.03292229662219   -0.14980380808591
H          -2.09447468211497   -0.66342410427467   -0.71462372208946
H          -3.16416007164757   -1.79644566756363   -0.61765008501887
O           0.05862455179297    2.32279700981623    0.84512058458439
H          -0.45467013463740    1.45910413921825    2.02767214326306
H           0.65959073008515    1.84339988894296    0.24016769521473
H          -0.72143537013329    2.53725642244889    0.29671944221076
O          -1.06417614383321   -1.39710654597150    1.67552708954586
H          -1.87843765821990   -1.30133054507611    1.07530226977579
H          -0.24084146061149   -1.40730555048121    0.98071786833228
H          -0.96405846536727   -0.48838177773741    2.18849123635263
N           3.50344420239417   -1.06903290533475   -1.14290721555654
H           3.18555246055433   -0.14458843227035   -0.86382866051295
H           3.39444435799026   -1.68317030477554   -0.34609831437364
H           2.16159855843542   -1.24862165220149   -2.09015837039596
H           4.48375990019123   -1.02461556906810   -1.39026082174486
