    26
        -50.45899782  Gyration_radius:  2.471655457 Dipole_moment: 5.011
 S          -0.40423420628675    0.11882535090346   -0.97479697350580
O          -1.66505346241005   -0.20138004901521   -1.58537088608062
O           0.30601137125613    1.25439729054643   -1.79538413165404
O          -0.58251493704277    0.68376285748755    0.38132010440991
O           0.56057501245403   -0.97019643439559   -0.94547016656120
O           1.54427396577484   -1.52523719836163    2.67045980207581
H           2.38056491093371   -1.99056618006127    2.60496780278051
O           2.78689392291113    0.31406338253733   -0.59941096747727
H           2.70953738325772    1.04748346338312   -1.21530890235205
H           2.05479042711006   -0.30174413093778   -0.84936186000264
O          -2.34313324183558   -1.37625347868890    0.80841877371361
H          -1.94139473243244   -0.54717368725608    1.09773864816848
H          -2.42624187390702   -1.26716001032376   -0.14882111357630
O           1.57031621754633    0.74574440624104    1.59388861567366
H           0.61140843888211    0.78223542007596    1.13814576288212
H           1.58154073738326   -0.17096988267875    2.11194259377659
H           2.20154792054618    0.63749002316128    0.79246418316365
O          -0.00601040134120   -2.73629306781715    1.00519370059956
H          -0.94463408112154   -2.48445928457638    1.10852341759335
H           0.27107544007066   -2.28095225176139    0.18968728373069
H           0.89257718950307   -2.04310866916991    2.09851092165564
N          -1.92030994903865    2.58507493423986   -1.91731249574953
H          -2.15805070729924    3.05821439194272   -1.05525697247511
H          -0.42521873601212    1.92639605021276   -1.94105811883715
H          -2.31904450727374    1.64923846069247   -1.88562886384502
H          -2.33527207162950    3.09256829362272   -2.68808015810595
