    26
        -50.45899777  Gyration_radius:  2.47165944364 Dipole_moment: 5.014
 S          -0.06654449291674    0.38726505752427   -0.98597671593593
O          -1.15502005268363    0.76767206333407   -1.84370278439543
O          -0.35697293663488   -0.86964061910141   -0.26094431175592
O           1.20309132312087    0.06902565285081   -1.85434276162836
O           0.37427322684106    1.41651435081443   -0.05647463939870
O           0.11935794324550   -0.01980297825842    3.43904785757762
H           0.70441043145037    0.54016059365749    3.95313009462126
O           2.75292441201418    0.58418723606452    0.55517589894892
H           3.11795333264002    0.33212021395796   -0.29713554479937
H           1.93218245166582    1.09061564248710    0.33681583275276
O          -2.81215188606128    0.22760506504283    0.28434470520639
H          -2.59841447023946    0.66885344365815   -0.54926759569828
H          -2.21685161759930   -0.53256520704821    0.29835750442980
O          -1.29484737386424    1.62332429045089    2.04495835618433
H          -0.51100853193504    0.60511179436893    2.95720461933062
H          -0.66833305495054    1.77120088164637    1.31367371578427
H          -2.06155472031058    1.19535791333738    1.61579097072015
O           1.27436818120463   -1.22669459708238    1.56107227724711
H           1.99958008945643   -0.57164830088302    1.24907313974771
H           0.80636191419413   -0.78327820557648    2.39357612258859
H           0.55045790409405   -1.16701590268149    0.78571041215540
N          -0.24618490755331   -1.32469809408560   -3.49734893175022
H          -0.49904271101965   -2.23772121114446   -3.14235505485295
H          -0.96248173323006   -0.66239742658534   -3.20730741773312
H           0.84250440674965   -0.51737042029049   -2.58486629233305
H          -0.22805713765464   -1.36618125643300   -4.50820946701261
