    26
        -50.46972950  Gyration_radius:  2.430782046 Dipole_moment: 5.130
 S          -1.56204878817240    0.08309913952027   -0.13594080206496
O          -2.40441809704151   -0.05813912347548   -1.29444291952953
O          -0.26931708317125   -0.77043024753989   -0.48469825864894
O          -1.05372728780606    1.46068316246327    0.02435446889348
O          -2.09496477993003   -0.43144948393706    1.10291827734068
O          -0.69523025321001   -2.26807037166839    2.40158296019990
H          -1.28803549984020   -1.61583760083416    1.96663735157500
H          -1.12484564086498   -3.11847466055902    2.30717750208268
O           2.75124149682326    0.12077955231995   -0.55275206430938
H           2.38347194914613   -0.06059105874413    0.33075694075517
H           2.92496064973396   -0.73799737022842   -0.94293935806854
O          -0.30585989946316    1.28290134191629    2.54824469019878
H          -0.62783634874124    1.52267213656301    1.65481618192443
H          -1.03045069788451    0.78677791746094    2.94013872101300
O          -0.71443722696827   -0.08277390594633   -3.25761312353762
H          -1.45969304947309   -0.04549467998041   -2.60110413375765
H           0.30185811501782    0.90235730676077   -2.49723646373599
H          -0.44397716382873   -1.00326955862517   -3.26273310545900
O           1.26062465912388   -0.61333306352200    1.62559125498500
H           0.85878375028628   -1.38555675479232    2.06192531623356
H           0.31793481624677   -0.74702992991330    0.31866612778978
H           0.83140933039887    0.16286132180275    2.07191034852713
N           0.77475039141013    1.52402161012029   -1.77966730607751
H           1.59907402474017    1.03403726177234   -1.36108037205472
H           0.03433080007685    1.63668276232324   -1.01104784808369
H           1.03640183337836    2.42157430673413   -2.17346440619911
