    26
        -50.45929194  Gyration_radius:  2.4974216199 Dipole_moment: 7.216
 S          -0.86437377144689    0.40217747938296    0.49075619143416
O          -2.07990923862791   -0.32871191559152    0.83116021588250
O          -0.10806893687448    0.85685080946728    1.63879635771606
O           0.00822863071428   -0.65782326391913   -0.26861494197961
O          -1.13572327414453    1.47141915221927   -0.47538052839982
O           3.27757638810424   -0.54252965348117    1.62259805565437
H           3.45189955968760    0.19037890851347    2.21610948381806
O           1.27230791002006    2.64289385552869    0.22073661204637
H           0.52171573256732    2.76845161391944   -0.37132296355572
H           0.88125081204345    2.16286998166552    0.97316374717525
O          -1.21118605374072   -1.64237656051167   -2.48184190531000
H          -0.66306510144507   -1.32896866244554   -1.73445266528285
H          -1.02170641098279   -2.57591138402919   -2.58631522207482
O           0.89175085420845   -1.46772017094240    2.45680562470658
H           2.48358775550116   -0.99606182405778    1.98372413188265
H           0.47014155672747   -0.59598607635977    2.32336827835026
H           0.47017581128807   -2.05354903317538    1.82506567201195
O           2.24684585978496    0.33611183085852   -0.65934210053551
H           2.06666405074932    1.28165721692245   -0.43634787974991
H           2.76613157837216   -0.02344259974880    0.10312309253491
H           0.97833483919842   -0.25467282538031   -0.47585754773301
N          -2.99583037642535    0.06684342412744   -1.48329553062121
H          -2.56009435133724   -0.64178586742853   -2.10505271385854
H          -3.93095870094772    0.33857428319043   -1.76458077101378
H          -2.90348682960160   -0.28404957599072   -0.46962283071473
H          -2.31220830339576    0.87536086730406   -1.37337985235804
