    26
        -50.45804777  Gyration_radius:  2.4894015519 Dipole_moment: 6.741
 S           0.65228163040991   -0.44412136636950   -1.73175619260994
O           0.94502210717285    1.10676314446341   -1.65030639851309
O           1.41842487141105   -0.99217179955801   -2.79502528847545
O           1.06188269510658   -0.96516890685182   -0.39935280352450
O          -0.80187886823427   -0.58713320585751   -1.85309202358910
O          -0.93105312529386    0.83946623877723    2.03495746457206
H          -1.14222729232063    1.41243297281769    2.77253506784559
O           2.77259138262222    2.46057836952941   -0.07570964928357
H           2.19732156509418    2.10683438615445   -0.77441486845757
H           3.67422718551299    2.30533491276361   -0.36215295010120
O          -2.48378106482845   -2.33521554572558   -0.90446075731614
H          -2.46445181563069   -3.13098619599730   -1.43810574829180
H          -1.94216172458944   -1.66954503147540   -1.39445219813527
O          -1.33821945236584    1.64239530051976   -0.58015335401931
H          -1.53021564002619    0.81433829988860   -1.05686215244760
H          -1.30984043282563    1.42427975012345    0.36790657118933
H           0.11138973355717    1.47511532518494   -1.24917305081162
O           1.61467139035871    0.67762746958366    1.62658697171002
H           0.07179107317862    0.85377242298656    1.93898050791726
H           1.57601493085746    0.02369344964459    0.89868042373201
H           2.05196277354764    1.45437628825054    1.22989542638004
N          -0.85897107641277   -1.71285234773208    1.10591428300980
H          -1.62388553937549   -2.04968466552022    0.47183447442589
H          -1.12205381143750   -0.83551313304429    1.58997820131997
H          -0.57982873677612   -2.42281573440389    1.77407484564645
H          -0.01901277871328   -1.45180042815239    0.45367320782787
