    26
        -50.45781626  Gyration_radius:  2.44484141009 Dipole_moment: 6.398
 S          -0.50205560962671    1.18201034048942   -1.38935632994785
O          -1.26156529640442    1.84871092999828   -2.38829149816619
O          -1.28343534836952    0.21808540708062   -0.60035793503348
O           0.71241316094325    0.49766364446191   -1.89376723793280
O           0.01277935426977    2.25093097614833   -0.34329629358083
O           1.44332954749797   -1.21362076066980    1.44622935809491
H           1.76889395952308   -1.67662335869744    2.21874101663077
O          -1.91339299200222   -2.19828605422403   -1.35267064272570
H          -2.36279146640326   -2.15926850154770   -2.19839237042619
H          -1.88014608951387   -1.26905499786034   -1.02218685441271
O          -0.97964848377059    2.55087213107170    2.23419093533442
H          -0.64794111845756    2.63960383079074    1.32575272390011
H          -1.86582240346060    2.91658044567313    2.23743288484153
O          -0.82659530200376   -0.15836888568373    1.96537467011378
H           0.55967745667282   -0.79794421982875    1.72221638345086
H          -0.82144679224139    0.75236546532630    2.31449849089721
H          -1.12444030770434   -0.05767342782822    1.03465362577235
O           2.28845495865576    1.08973145105926    0.13718108477868
H           2.13515668142475    0.31677212005068    0.70667192632568
H           2.10017246176442    0.80309821772095   -0.77248491980550
H           0.90777118773888    1.92739976277836   -0.06273810909987
N           0.72248494049713   -1.92541094219862   -1.06454354910962
H           0.73183015125089   -0.91814192723801   -1.47543909535717
H           1.36257987555540   -2.53123992252044   -1.56669681416168
H           0.99515403049914   -1.83606756777763   -0.06141582849664
H          -0.27141656633478   -2.25212416657358   -1.15130562188439
