    26
        -50.45488974  Gyration_radius:  2.4786683527 Dipole_moment: 2.639
 S          -0.73557232431691    0.65351314464262    0.68741468636631
O          -1.76381885584685    0.06357460621456    1.51421397363929
O          -1.12594066069362    0.72168661020698   -0.73074973857467
O          -0.47689948060181    2.11983934163384    1.11273815596359
O           0.52324479646642   -0.09032071446996    0.81631691571319
O           1.12112779907110   -1.76399481872813   -2.61387554776956
H           1.57736519357500   -2.56252489338627   -2.34143593273911
O          -0.79492871203360   -2.34324823760486    0.73468873143062
H          -1.53332843910731   -1.92900544532404    1.20610664110924
H          -0.07662559392794   -1.68160717952134    0.85938645065525
O           0.62042874244036    2.18554302949049   -2.16579401995367
H           0.23350166590877    2.27757756436049   -3.03812858612345
H          -0.07480008106999    1.80789563688978   -1.59511889078882
O           2.16377401635138    0.14567167696586   -1.27511422229958
H           1.68089515466483    0.07569477993222   -0.42602231125820
H           1.59387253554527   -0.99194644900709   -2.14451740277000
H           1.84104754889345    0.97708016387412   -1.67237618602954
O          -1.18078874340052   -1.60410365091556   -1.65489728312482
H          -1.08902179321715   -2.07466884043575   -0.73664658206620
H          -1.24792141492192   -0.60506155503365   -1.38054705472501
H          -0.23284717738880   -1.70174086953359   -2.13401614614831
N          -0.16670757540250    1.26864013349847    3.55180697531245
H          -0.35761067648059    1.62680426475727    4.47871563806063
H          -0.91026493525253    0.63142575801521    3.27944841415799
H          -0.28746878675146    2.04720282705675    2.09108442782761
H           0.69928779749878    0.74607314640731    3.57731888414387
