    26
        -50.45488935  Gyration_radius:  2.47967479946 Dipole_moment: 2.643
 S          -0.48072563823356   -0.20831283389742   -1.07633120981623
O          -0.76528717611198    1.16121082353037   -0.61621853492488
O           0.42703948175989   -0.86709255091268   -0.12964140654659
O          -1.68317165835992   -0.98944458840103   -1.25830420565148
O           0.26297304317640   -0.04200043072200   -2.42433153186618
O           0.52808397942078    1.40432500095590    2.99496772876717
H           0.66074792749803    0.74933255868943    3.68302158629975
O           1.44094911538292    2.70385956867921   -0.68317443284750
H           0.63532609620115    2.17354334916323   -0.82937163377982
H           1.14577230641175    3.59410963455180   -0.48427320590603
O          -1.59890456564922   -1.45595346043125    1.40889516445477
H          -2.16053181330047   -1.56710623963059    0.62710838152027
H          -0.69831641661946   -1.43629710558453    1.01152549537583
O          -1.60394651838563    1.05303569784779    1.73986668636756
H          -1.72078472887452    0.02375332667706    1.75276777854601
H          -0.73406070390838    1.25992555484528    2.32122486152812
H          -1.32351445479283    1.22643369618090    0.75543711684371
O           2.12541274780679    0.78343156832439    1.10038675449258
H           1.22458970948123    1.20769713460665    2.27668052146495
H           1.61628324069067    0.08873597710929    0.63436080516879
H           2.13391802631827    1.53772272486270    0.48052092821661
N           0.14423989141619   -2.62455363524636   -2.71953488488533
H           0.76841411578402   -3.03989879481332   -2.04020449132636
H          -0.76158902905200   -2.49560038200853   -2.27676301364745
H           0.37154661644261   -0.98130743561289   -2.74747295152009
H           0.04553641549793   -3.25954918874402   -3.50114230634105
