    26
        -50.45781624  Gyration_radius:  2.44488848284 Dipole_moment: 6.394
 S          -0.54066940046987    0.26068142431614   -1.79441352662074
O          -1.58382302260279   -0.85845502976388   -1.39254055537366
O          -0.51558753217171    0.37513765321021   -3.21057670601193
O          -0.97589823544966    1.48751981178491   -1.08507437919095
O           0.73734749689218   -0.18041305191471   -1.21624135296042
O          -0.11208855756163    0.09993171006425    2.37137537728967
H           0.02158848938310   -0.12276245581703    3.29316448825217
O           2.81222711915514    1.34080148650262   -0.78781462376836
H           2.16764892657505    0.63832587351095   -1.04230654790341
H           3.05701777045423    1.77937202035960   -1.60418032273458
O          -0.91526980005269   -3.38022382521577   -0.43803904724976
H          -0.53029991026620   -3.93252979196239   -1.12052709835526
H          -1.27180129058056   -2.59591206178571   -0.88631866953186
O           0.82885575075466   -1.75856884225507    0.88963928957701
H           0.25531645676024   -0.68236795205177    1.83954371269045
H           0.21813424018883   -2.47738932304257    0.64111277806491
H           0.91574015115472   -1.22279034032678    0.07081867631131
O          -2.39348635495330    0.29399851408981    0.79266334958532
H          -1.98856766144369   -0.54150381684375   -0.54399988863375
H          -1.71372298357896    0.18319266938946    1.47891177765082
H          -2.11688377636181    1.05259386856334    0.25130777655027
N           0.74109425383549    2.07109813499511    0.72338480818670
H           1.67773210879500    1.89102651444752    0.28497318632110
H           0.01357103710808    1.88454999110200   -0.06356725615891
H           0.54571995154676    1.37450420192932    1.47525074277364
H           0.66610479289077    3.02018261671432    1.07345403124006
