    26
        -50.45490057  Gyration_radius:  2.49079864798 Dipole_moment: 5.143
 S           0.56821772916924    0.78604359126839   -0.81257653495364
O           1.84410877760942    1.32847757341828   -1.15350180518640
O           0.16770413074349   -0.41372597812345   -1.53392059684722
O           0.43710682336305    0.54991046573445    0.64928736148446
O          -0.56080109909461    1.83695883000248   -1.13517684287663
O          -1.18254386935886   -2.93735142628232    1.02552411682701
H          -1.79921102889725   -3.45143198099357    0.50082171331643
O           2.25943889397224   -1.24470407171091    1.50127928623364
H           1.71750620593915   -0.48637740719685    1.21423971605001
H           2.03381571976624   -1.40843299760523    2.41913581287882
O          -2.41581051957478   -0.24261931577804   -1.41384581653648
H          -1.46620181341550   -0.39787080759700   -1.64717059379667
H          -2.57292049281313    0.67725696742421   -1.64423351173126
O          -1.77375901895911   -0.49672793855632    1.02864700565749
H          -2.18576081032030   -0.38196492561930    0.09088111659397
H          -1.55943176428711   -1.52634924367311    1.10856509778009
H          -0.82822115197606   -0.01875191923334    0.94715748011659
O           0.96345902366932   -2.71962505740987   -0.36580842661892
H           1.62850331116864   -2.36789753642750    0.25754543508296
H          -0.31114757103113   -2.93069871910329    0.50596274734131
H           0.74752115642522   -1.97052479929641   -0.95126065036025
N           0.88246720931036    3.70024600288435   -0.05232736081176
H           0.87557985827274    3.71801317954667    0.95914160115151
H           1.63202044723266    3.07875904852435   -0.35359498486115
H          -0.18006106416613    2.68473232567978   -0.75722841592493
H           1.07842093724944    4.63465615012751   -0.38754296001294
