    26
        -50.45490056  Gyration_radius:  2.49078545298 Dipole_moment: 5.143
 S           0.02302627937483   -1.22732864374761   -0.30813908106340
O          -0.77224323156839    0.00226996288027   -0.56440899645973
O          -0.70743357915743   -1.91085347580594    0.90940571693496
O           0.01863438937633   -2.10965473468911   -1.43060691058502
O           1.33175303924673   -0.85712712551420    0.21178201904024
O           1.35624342449382    2.94401818021925    0.75552415976787
H           1.99556004634398    3.04612017400162    1.46314879372920
O           0.76621724476193   -0.32201196028512    2.68391437247060
H           0.20872166188144   -1.06421058966771    2.93359728954497
H           1.16629335978929   -0.59235579921279    1.81950113650422
O           0.26382495056663    1.40811989443949   -2.61815048197268
H          -0.24372579504115    2.22180033532564   -2.64056233221876
H          -0.18976995343852    0.81651646423053   -1.98937727821098
O           2.40001845411061    1.33772008175407   -0.95303486243441
H           1.81146268273427    2.37859474440193    0.04673235514106
H           2.19328396887422    0.46833683007437   -0.56320177780001
H           1.82400308087884    1.40410923679747   -1.73942945757918
O          -0.54725352706023    1.45123939898379    1.42986219109041
H          -0.07871080520467    0.79502589955540    2.07190835402440
H           0.19789344287673    2.14662506887110    1.15861798307145
H          -0.71876580630718    0.86903847562841    0.55763295734076
N          -2.60150765842342   -2.69054856598310   -0.68189790898881
H          -3.27453600818547   -1.97800971323356   -0.93246651921294
H          -1.83731208102748   -2.65592881194769   -1.35544838494566
H          -1.53285696385570   -2.28756519574438    0.48129509766916
H          -3.05282063603778   -3.59394013133164   -0.74619846485559
