    26
        -50.45490056  Gyration_radius:  2.49072900961 Dipole_moment: 5.144
 S          -0.45457679832123    0.67015720809126   -0.97272559275509
O          -1.66464362107656    0.97378031647295   -1.66699609573373
O          -0.45165171905345   -0.71838240739559   -0.44171067964881
O           0.75834996794954    0.69978120362152   -1.97829116896153
O          -0.07374492418707    1.59380711167756    0.08651879560122
O           0.91737415109817   -0.47910769076544    3.16299858275978
H           1.54016792831291    0.09882532236662    3.60794294223645
O           2.49833672398844    1.27766931475058    0.13892313451824
H           1.56185932233023    1.59734664204129    0.17224249457335
H           2.72940015692113    1.30611414817506   -0.79367641137986
O          -2.44058795819495   -1.06980436793615    1.34404974268397
H          -2.29695001699700   -1.94749633428331    1.70350917806254
H          -1.83286349497471   -0.97821138175098    0.58682882806533
O          -1.09679689756388    0.97274978000452    2.51180434135258
H          -1.78542807009194    0.33441210365613    2.24184550131133
H           0.09102712892841    0.08267200033750    2.98740206586852
H          -0.79075891704857    1.37839227956226    1.67971921145329
O           1.65498723602148   -1.01639665696679    0.82342998113863
H           1.37246934920718   -0.87136372751324    1.82920235013646
H           0.74963652415844   -0.97403568340312    0.26867102052651
H           2.14452728577554   -0.14961345556456    0.55617456801805
N          -0.64741550372165   -0.64708947470252   -3.69212369547031
H          -1.40819006311942   -0.17822966842694   -3.20198482378250
H           0.40216041993756    0.18167624273981   -2.76010149027864
H          -0.71765514495264   -1.63916100908402   -3.50686164611823
H          -0.75903309532715   -0.49849181570368   -4.68679115417937
