    26
        -50.45490056  Gyration_radius:  2.49084928007 Dipole_moment: 5.144
 S           0.14050163972447   -0.01505684615663   -1.25741349794874
O          -1.10853821326599    0.66275818386364   -0.94021652798250
O          -0.29160923536625   -1.48048915137568   -1.64334249706425
O           0.91424088047800    0.55394115695197   -2.31382066747137
O           0.93801254992732   -0.18737160996412   -0.01471811018426
O          -1.30852467677796    1.05000488261298    2.87471836015786
H          -2.25483712817963    1.06625291615320    3.02989563871561
O           1.81420968925560    2.19082537893497    0.90409777432315
H           2.22232400306491    1.99323855730135    1.74942391434048
H           1.62955425055200    1.33279708903777    0.47889281944059
O          -2.50105090858743   -1.27818256170224    0.06572750989230
H          -2.15640039970028   -0.46867067679176   -0.38836783237097
H          -2.34658875379595   -1.99008518922976   -0.56138673047266
O          -0.85976838660343    2.62839091305886    0.90083569952578
H          -1.13176363418749    1.74025494788975    2.15251747790472
H           0.11051582066783    2.74239351382623    0.89038405888213
H          -1.05310609480216    2.05409900496370    0.13707451888393
O          -0.59107419453165   -1.06342908242450    1.72355727098172
H           0.13028432275717   -0.72339549417718    1.02126350454730
H          -0.86030189497383   -0.20997317114826    2.28170159039296
H          -1.41600856211479   -1.27330567467890    1.14241059283412
N           2.11505750833556   -1.95419864463221   -2.48648922311919
H           2.09008580097098   -0.94788125831522   -2.64629105793908
H           2.79648036376175   -2.14127490808009   -1.76254651406859
H           0.56124889182662   -1.86910912222419   -2.00135928615606
H           2.41705639156234   -2.41253315369279   -3.33654879604688
