    26
        -50.45599950  Gyration_radius:  2.47904851385 Dipole_moment: 2.527
 S           0.52683114331072   -0.63738805067150   -1.22646949680401
O           0.92009680546672    0.02927238652906   -2.53088594892428
O           0.82442411844893    0.45236969237029   -0.18126972399366
O          -0.88898542281277   -0.92870557209950   -1.21360264283051
O           1.35847629460396   -1.78106496835861   -0.98699301866248
O          -0.82665312647630   -2.57104077920837    0.89554812924778
H          -0.15633912780065   -3.20626073331521    0.63087797768630
H          -1.05373745661677   -2.07590123991645    0.08817893309443
O           2.71385927914828   -1.92279969195982    1.33082341358135
H           2.30031099450200   -1.98110032233730    0.44764412235610
H           3.62133787705997   -1.65194571931401    1.18526507177152
O          -2.15222948666488    1.43324456511413   -0.86906064283563
H          -1.91993553334342    0.49323515329584   -0.94992047322446
H          -1.86318610189130    1.69904636451291    0.03701914652133
O          -0.42967244851901    2.14061989461997   -2.63434136845436
H          -1.13209670766531    1.97525127436322   -1.92161800176025
H           0.40412155972242    0.93093433790222   -2.59644514748220
H          -0.90073522066852    2.17226760915174   -3.47042391058055
O           0.50260372644471   -0.61186489830475    2.07638635556695
H           1.37908599143871   -1.04438699598868    2.12505779697448
H           0.67613891837887    0.08365797121562    0.77738960073521
H          -0.11309156716410   -1.34543065993716    1.83260201208853
N          -1.10857109806523    2.03877627158900    1.57344926984416
H          -0.22036214945171    2.43286425363650    1.28798645904661
H          -0.90690113549983    1.18734741619243    2.08478146489044
H          -1.55479013588705    2.68900245091761    2.20802063214358
