    26
        -50.45490059  Gyration_radius:  2.4907882472 Dipole_moment: 5.144
 S          -0.16977214111192    0.90502340174982   -0.86780460432828
O          -1.14777399997610    1.45023169570625   -1.75360485499588
O          -0.32965898399037   -0.56334194524810   -0.69900469099068
O           1.26641503898336    1.06564938812715   -1.49618820664078
O          -0.06831022846418    1.53401063417106    0.44150091362070
O           0.03904814564547   -1.24834217706383    3.08533267404298
H           0.53088689159963   -0.83510274116132    3.79747927769455
O           2.39269832400875    1.01483520396664    1.06762215453629
H           2.86235483931859    1.23378196892249    0.25798756499908
H           1.48607446716511    1.39080770813600    0.93751837003375
O          -2.72653807467862   -1.15126338331747    0.38585073860371
H          -2.69766420384219   -2.09589325217322    0.55021687181759
H          -1.93829416223306   -0.93920171060963   -0.14779477314544
O          -1.70779922073276    0.46418448344373    2.30778373483778
H          -0.70254085875126   -0.59934714260216    2.84423754270039
H          -1.18591669625556    1.02181484299711    1.70186849726519
H          -2.31006832740575   -0.04152955545555    1.72803252221618
O           1.36138623922286   -1.30142109045761    0.95101703891881
H           0.82491648873036   -1.36477400791635    1.85682789241256
H           0.63611492675503   -1.06495185412088    0.21130534996296
H           1.91815458664379   -0.43765876641196    1.03055544561434
N           0.34364037992482    0.25356904088941   -3.78003114763985
H           1.12183052610679    0.76631832958340   -2.44285115333259
H           0.21125813880417   -0.74610192874934   -3.86079432619907
H          -0.51227654138170    0.65744004707782   -3.40173221267366
H           0.50183446591329    0.63126279051793   -4.70533060933331
