    26
        -50.45531805  Gyration_radius:  2.42694566469 Dipole_moment: 6.003
 S           1.01068856465308    0.79096611049481   -1.40398583927182
O          -0.43904152090896    1.10012919999461   -1.56049080044288
O           1.03124105666793   -0.74213420520598   -1.00597739851020
O           1.72042960879562    0.88660250378736   -2.63498110148030
O           1.55948983038984    1.52762374601725   -0.27256392264412
O          -1.56834198341516    0.23494785094086    1.81985822918919
H          -2.01156119849812    0.46150979614884    2.63820520048612
O           2.83018116182000    0.51729726553171    1.82514357266461
H           3.72781759873719    0.31356505214810    1.55896703096477
H           2.43192526754059    1.01116908677979    1.07646819763826
O          -1.68942529543530   -1.99238614380882    0.20768900794186
H          -1.85762737210337   -1.18870157613950    0.73336860651813
H          -0.83810912630558   -2.31236599298137    0.52747101611175
O          -0.70030762346268    2.43935587041011    0.74063618069705
H          -1.11865577605352    2.41777708525652   -0.12836120856218
H          -1.26671879013283    1.10185313490191    1.41883531238638
H           0.23375893414164    2.22889613282364    0.52619435638416
O           0.76868619202944   -1.14497681080782    1.53399660947152
H           1.56223589694529   -0.65195294068730    1.83396423928977
H           0.00217131724119   -0.60978681012215    1.81302209439227
H           0.94586385131066   -0.86716289548226   -0.01520720102479
N          -1.29259545175867   -1.13219595108700   -2.27853826976571
H          -1.52211374033835   -1.56150698422406   -1.33641152998265
H          -2.07923605348050   -1.16487254779504   -2.91817206884834
H          -0.96878480651966   -0.07493695425643   -2.03124974522471
H          -0.47197056380971   -1.58871304285750   -2.66788056969513
