    26
        -50.46173757  Gyration_radius:  2.45740969844 Dipole_moment: 6.257
 S          -0.82492785975647    1.09921818610663    0.56605324138506
O          -0.90020719314664    1.60028824172934   -0.80539170164476
O           0.23434817542517    1.71435383661520    1.32750655678568
O          -2.13848185705854    1.11811004038915    1.20943414047136
O          -0.52479974661292   -0.44019713839526    0.46130777957388
O           2.89665584772737   -1.67418027311219    0.68965016212986
H           2.70247420608061   -2.53764150302501    1.05651803506820
O           1.72121716369262    1.80278992070302   -1.11610978912309
H           1.94435120563682    2.02420126144203   -0.20737566950145
H           0.75500077021867    1.93511323334752   -1.16103046082408
O          -1.52354599012074   -0.46100958668182   -2.24941004472192
H          -1.28673749656549    0.43318960291245   -1.90147303693105
H          -0.69179895394695   -0.94949033876672   -2.23868009978538
O           1.92683700844629    0.06323462653100    2.50081626259036
H           2.59087042683105   -1.02494233533704    1.36079553424802
H           2.50307283659027    0.65485270430067    2.98784770199312
H           1.23651877220247    0.63470948781111    2.09809772071747
O           1.29772784643420   -0.82654291410728   -1.26269310813929
H           1.59865535017488    0.10300944585985   -1.39106315371742
H           1.98568472340584   -1.23333026711860   -0.68753707712302
H           0.22429012389855   -0.61483182229730   -0.20901359108214
N          -3.17564627984822   -0.70482670416637   -0.21294564645755
H          -2.53961003114995   -0.71120371214774   -1.07802297309228
H          -2.79512819081987    0.11743780487258    0.43752086695559
H          -4.14477993492941   -0.54451202911604   -0.47091579862174
H          -3.07204093281211   -1.57779976834155    0.29611414883944
