    26
        -50.46173749  Gyration_radius:  2.45742940787 Dipole_moment: 6.255
 S          -0.32755579677023   -1.23890707354427    0.75165607239013
O          -1.46025270034871   -0.69651221682223    1.46088105797326
O          -0.20894514868416   -0.49412071277653   -0.62749278437380
O           0.93693061977433   -1.01768481585498    1.45136836505989
O          -0.46815375330325   -2.63585640105019    0.34096716641582
O          -1.52513510231838    2.88053923408453   -1.02130735616801
H          -1.72716038979485    2.83537874237609   -1.95678804091051
O           2.67148137569379   -0.53557665469250   -0.41483315068423
H           2.40943603974966    0.35338997157380   -0.68247267687684
H           2.19074041949703   -0.68693127189850    0.43513968137869
O           0.28897562772201    1.39380818631959    2.33166270686486
H           0.66018111116371    0.49631018387910    2.23279579839504
H          -0.65504212451618    1.24465757006320    2.43760220455424
O          -3.01601960735914    0.93429177152896    0.08680675337969
H          -2.09691429530756    2.20601179050892   -0.59275260894941
H          -2.44401152530278    0.27404679282326    0.53651017045761
H          -3.72021944929213    1.13358982439763    0.70622645116260
O           0.78848709384903    1.80997796150249   -0.25521262476981
H           0.04302225881044    2.36647866740010   -0.57816674610323
H           0.72651075264643    1.85662964176555    0.72714360879125
H           0.16679804645535    0.44543657966667   -0.49628829553228
N           1.37249784281424   -2.60412132166968   -1.40036099949609
H           0.93283978142297   -2.42186218750983   -2.29781153717233
H           0.56450446553175   -2.70020835648676   -0.63719171225201
H           1.94069001528979   -3.44516246432901   -1.43546378961395
H           1.95631443257257   -1.75360342124598   -1.10261770391044
