    26
        -50.45997520  Gyration_radius:  2.5705430725 Dipole_moment: 7.037
 S          -0.21984300998462    0.44262093474912   -0.91598163871108
O           0.55491773897316    0.46302274506127   -2.16354490801347
O          -1.52708285402337   -0.17949468010852   -1.12003735935644
O           0.59781268032540   -0.52154031410314   -0.00170212204330
O          -0.31108972284257    1.73544181435056   -0.27934965078899
O           1.12958722155745    1.36416457834568    3.34119657112996
H           1.91964583080546    0.95812171246645    3.70073304878018
O          -1.45865215225660   -2.51987182231560   -2.22765422134446
H          -2.04199582539849   -2.46376133466207   -2.98669522586805
H          -1.57935537209661   -1.66258807009516   -1.73699051339561
O          -2.51131851066054    0.87097613167505    1.14559662786840
H          -2.03579957035686    1.69627586006079    0.99828911762887
H          -2.41604353430932    0.39975751920340    0.29914373074208
O          -0.48775468996044   -0.47137256488532    2.25065878770495
H          -1.34268526364696   -0.03350705473080    2.03076277078303
H           0.16427137630636   -0.53824346957546    0.94975141714385
H           0.03719041085115    0.19368073989605    2.75422855478953
O           1.83867313181436    2.50409490895657    1.01869339589718
H           1.07899930974488    2.19230378893729    0.47661267578483
H           1.80191215699716    3.46184923404135    0.98442669316275
H           1.40970558361288    1.82007362577726    2.51510329725359
N           1.11199768612648   -1.98234394804531   -2.22745649951271
H           0.13956914559813   -2.38938092348739   -2.33160158874010
H           1.77669744606236   -2.34961506000138   -2.89986305050001
H           0.94833065897434   -0.87529016946579   -2.30899453126115
H           1.42231012780080   -2.11537419204978   -1.26532538913349
