    26
        -50.45599940  Gyration_radius:  2.47915338989 Dipole_moment: 2.527
 S          -0.58755089585822    0.42372454826828   -1.28900810637712
O           0.07665546713814    0.45808314056021   -2.65223433652635
O           0.12872708631870   -0.74429851575315   -0.58810150797460
O          -0.31846386441997    1.64501993867932   -0.56396218538968
O          -1.98343493698324    0.12508401138911   -1.42836199158929
O          -2.99276010628591   -1.96869492133404   -0.07665586895166
H          -2.74958657493721   -1.20586211042460   -0.63641255136528
H          -3.06829545829781   -2.72089958072410   -0.66536359561844
O          -2.17219390666621    1.27080929958408    1.32653907160132
H          -1.50742608765702    1.62727077744125    0.71043940973906
H          -2.96360935184420    1.12862636283509    0.80083892226807
O           2.26021766419879    1.51188366278273    0.22717773955917
H           2.25046481315870    0.75129417553482    0.85690335531044
H           1.32770274569058    1.75039942427436    0.09423904310559
O          -1.07577966057788   -1.12264275832145    1.58881076642909
H          -0.30263058980621   -0.92975375420980    0.33743516488892
H          -1.47287188851314   -0.22739987839096    1.72128803924852
H          -1.81020448787320   -1.65563567825862    1.22247270065822
O           2.53005779612693    0.70476053712742   -2.19338964925882
H           2.53341524219278    0.98732916971339   -1.21921859737523
H           1.10476511234153    0.52619012356708   -2.50462967024434
H           2.86929927970203    1.45377737341494   -2.68919969851392
N           2.03183618240920   -0.70047653461744    1.80035507156450
H           2.09802790052731   -1.42186109161564    1.09251923446181
H           1.09886986717527   -0.75197109674441    2.19279547321640
H           2.69476866274187   -0.91475662477619    2.53472376713021
