    26
        -50.45997513  Gyration_radius:  2.5703590174 Dipole_moment: 7.038
 S           0.81690947371966   -0.63888030381748    0.08788634891235
O           0.85923889439866   -2.08609751471423    0.33444908612164
O           1.52085866303819    0.09359104261554    1.13929414361245
O           1.25753601532404   -0.27252385219045   -1.23749978544172
O          -0.69717878213239   -0.29347738416263    0.23757394663184
O          -1.66096793172244    1.70574372944536   -2.93713815046307
H          -2.60460141315253    1.55713626622828   -3.01346260745538
O           1.70911464849596    2.30740390597408   -0.36738554391206
H           1.79218202878304    1.65897728333966    0.35390613145674
H           1.86857464305092    1.78327498674237   -1.16031500065113
O           0.77123636880126   -0.47640562166002    3.55208852952585
H           1.57220452349674   -0.71578453498899    4.02183729197354
H           1.07424619014278   -0.14304826443534    2.66476093980676
O          -0.48381059074923   -0.69456906228798   -3.15731255258727
H          -1.23584080877707    0.82762634693489   -3.06720260610065
H           0.05733799529135   -0.83445380558052   -3.93660841520858
H           0.14984100631972   -0.60461645424156   -2.40996524851646
O          -0.95180132966314    2.11464750293082   -0.38685309121835
H          -0.84227956364275    0.71386523507371   -0.00270672841764
H          -0.01070209754377    2.40641784590998   -0.37401457987410
H          -1.21594431058686    2.08842246276541   -1.33603427931787
N          -0.78329953650537   -2.12972208036461    2.23039063295745
H          -0.05129107434153   -2.25040469604830    1.38874764644889
H          -1.52420624786009   -1.55357096501165    1.83186495883344
H          -1.13465200615014   -3.00736982533006    2.59800620309691
H          -0.25270476802524   -1.55618224309242    2.94569272978953
