    26
        -50.45114697  Gyration_radius:  2.59858569365 Dipole_moment: 3.629
 S           0.58186128544006    1.53559182561748    0.56898195697380
O           0.30692616179517    0.36683488545022    1.52487825477872
O           0.86828477641823    2.70715606934585    1.51818194322630
O           1.74728778327226    1.26579355583916   -0.22324213223038
O          -0.62193554736663    1.80572070338333   -0.17369517835229
O          -1.03664723358065   -2.68577435791550   -0.17751083726265
H          -1.69880269298227   -2.98870281955308    0.44416131382148
O           2.40363681638942   -0.92544180246086   -1.49664649784520
H           3.30968432963873   -0.86904433550173   -1.80472114212202
H           2.18575971973531   -0.04440880430545   -1.11760845110038
O           0.08190770891492   -1.55268256913933   -2.90611533537450
H           0.93993366204263   -1.30893134502671   -2.52413591976069
H          -0.14304266607468   -2.40555058487540   -2.52429678494144
O          -1.76758677204449   -0.39950773740950   -1.25742497910731
H          -1.24238536351194   -0.57648728260079   -2.05992474127692
H          -1.37694392652745   -1.82816421369528   -0.54904094951191
H          -1.42071519728237    0.43115381464464   -0.88957954288801
O           1.25078253865059   -1.82550088633088    0.80944675359596
H           1.78575737325151   -1.64591583105011    0.01386841208885
H           0.75237726040914   -0.55575719981890    1.25523228254738
H           0.42491024376270   -2.26351070073903    0.47922288057484
N          -1.57214114249580    2.78320806214432    2.29365488700565
H          -1.81386352870274    2.46611484266302    1.35883547884501
H          -1.78212987814336    2.04349857021584    2.95042799575985
H          -0.04012162140675    2.87135303026528    1.96040036992941
H          -2.12279406964849    3.59895511082218    2.52664995263963
