    26
        -50.45469721  Gyration_radius:  2.51014658437 Dipole_moment: 5.574
 S          -1.67452072071469    0.15056158699748   -1.43755555894554
O          -1.19058955820988    0.17385478709570   -2.89007287954880
O          -1.11517300623644    1.45532534336841   -0.82645212871808
O          -3.09206732598303    0.19697748581464   -1.36928972102615
O          -1.04845178472149   -0.97246090977163   -0.76061317763025
O          -0.24821819311582    0.77077104648653    2.60736286447840
H          -0.52794814103432    1.34253719196111    3.32363647305790
O           1.52153761534901   -1.35349920249894   -0.19362325424027
H           0.57371761921502   -1.43535011947528   -0.41589547626268
H           1.58551424096521   -1.64163772208129    0.73517985767383
O           1.37357580963902   -1.49258258445669    2.53109354780583
H           0.75241424190319   -0.75260040793669    2.64332191758343
H           2.07629597035360   -1.36499611326620    3.16954586456313
O           1.14275424888500    1.21887330178788    0.28666671627164
H           1.40998327957698    0.27990635726725    0.10750875415964
H          -0.17262654872044    1.37360122858334   -0.42014184531166
H           0.79886367218753    1.21310381808044    1.19783813541251
O          -2.41226232975981   -0.19635627032513    1.39718127755289
H          -1.95716164943544   -0.76208247743316    0.75131540878400
H          -1.07713237004627    0.44067753300342    2.18262352082906
H          -3.06992481746520    0.27133534004149    0.87301202170164
N           1.36331879134174    0.22016078596605   -2.69878104660594
H           1.64716421128194   -0.52540257519675   -2.06993891081482
H           1.62302187879203    1.10268850953250   -2.27483824875211
H           1.85924205608454    0.11723486047300   -3.57432209836670
H          -0.14132718011562    0.16935919602965   -2.87476201362418
