    26
        -50.45469718  Gyration_radius:  2.5106558063 Dipole_moment: 5.585
 S          -1.29586482213158   -0.18752255642135    1.78459884197885
O          -1.91474835776901    0.38387274603908    0.48871441787157
O           0.04076265561908   -0.66681926725622    1.47601790848617
O          -1.17565202069112    1.02315681185784    2.71422604550097
O          -2.18846620325895   -1.15520736213692    2.31656112042553
O          -0.47343607230534   -1.40291726548394   -2.29279798476498
H          -1.01303860932645   -1.77510597499922   -2.99174438974609
O           2.28409642809974   -1.25278226438772   -1.93711000783289
H           1.33646205307299   -1.41670943327949   -2.08299095741850
H           2.67358805794120   -1.08993945831129   -2.79706326278312
O           1.96795071689754    0.54108767016324    0.09778647741958
H           1.43096742939120    0.00550397053655    0.71353973225010
H           2.33267533128991   -0.10109736004394   -0.53849476702757
O          -0.23233314834535    1.12151508691787   -1.24898418835967
H          -0.33911059333377    0.33964365404738   -1.81980361878393
H          -1.23254171012625    0.73517470849007   -0.19765245441894
H           0.64861643969221    0.99882698983521   -0.80859882397832
O          -1.16675057035856   -2.54085799622663    0.01080442595014
H          -1.99277785379755   -2.46085549623423    0.49786966813534
H          -0.76591815754310   -1.84439631099392   -1.45848029513617
H          -0.51626583639469   -2.09301868510945    0.57714967420505
N           0.37257434558871    2.63134010597333    1.45860817755041
H           1.19694225378958    2.11439741108185    1.16694583210163
H           0.66443998555497    3.44280899964752    1.98720654639864
H          -0.11480749348281    2.93855010956224    0.62548894372999
H          -0.52736422749227    1.71135115660593    2.25820291799345
