    26
        -50.47166718  Gyration_radius:  2.38839815619 Dipole_moment: 3.167
 S           1.36464702093629   -0.22735027567126    0.32519834574729
O           2.45716835721232   -0.67699236667650    1.33105646547486
O           2.03092395869569    0.26389384974299   -0.87097714378248
O           0.52622838749985   -1.38562182948910    0.03467788036990
O           0.58785281773336    0.84129817401362    0.95977069809934
O          -1.33421521161771   -2.03468099052227    1.74982790212296
H          -1.51121851424839   -2.97580962465072    1.71557338546308
H          -0.65889297577785   -1.85578232271443    1.05423299189324
O           0.07188154084858   -1.06937425900426   -2.56396624930231
H           0.95226911439802   -0.80833052832362   -2.84417729426848
H           0.18117473460316   -1.32790157174443   -1.62712487991577
O          -2.00888577078200    0.44952559776518    0.41423511493757
H          -1.08728251449888    0.62790929038647    0.68150526666127
H          -2.21739466345474   -0.40339972021149    0.81237779830705
O          -1.54288316253727    1.00460766537519   -2.15276296915562
H          -1.93620070299962    0.77264556761079   -1.28041248013453
H          -0.42308756347180    1.83884416252295   -1.73552703263271
H          -1.08515812476005    0.18524033901082   -2.45546827130923
O           0.61708111981251   -0.70956825784556    3.18403146425452
H           0.41056619989209    0.14008891138167    2.77022163429873
H          -0.11944350102743   -1.29434258619238    2.92828099002172
H           1.94487149247018   -0.82469508436951    2.16526984287061
N           0.48169088827067    2.30521298540731   -1.28245265618114
H           0.28612497207103    2.46066877228156   -0.29030918375272
H           0.77978220181103    3.15219947739912   -1.75451932387771
H           1.23239987892915    1.55171460451455   -1.26856230617832
