    26
        -50.46385734  Gyration_radius:  2.40986283261 Dipole_moment: 6.528
 S           1.07082064348079   -0.15636674006428   -1.21145419207592
O           0.94575503918216   -0.80019309575656   -2.52644259553895
O           2.37491967322798    0.37472702940872   -0.92072739669151
O           0.02981106007082    1.00219522694438   -1.29274047031413
O           0.59623358748222   -1.06121864208954   -0.15815909076666
O          -1.52847879623879    0.33240626745408    2.09821695195785
H          -1.89285951805391   -0.21421475334353    1.39271750893372
O           2.45559410595750    1.26892007219818    1.54106487636593
H           3.22616380194613    1.83333771032585    1.62174518749363
H           2.49775295660192    0.88133846909825    0.63326527024590
O          -1.90359496431557   -1.51490503753165   -0.18994246668506
H          -2.03603983618753   -2.41648895797833    0.10916095781121
H          -0.91498887036471   -1.34708048609687   -0.11668029790532
O          -0.03394590028889    2.17063627986236    0.92082799300811
H           0.84583795653768    1.97601599381507    1.29851908808614
H           0.01286000447662    1.53728391259690   -0.40058529175318
H          -0.67651822517814    1.60619443765724    1.42324579222143
O           0.85396693223629   -0.84524887732915    2.51773058903042
H          -0.74205012916508   -0.15236497136905    2.43586199814769
H           0.86469736287210   -1.09706551583049    1.57745543533536
H           1.50928021274594   -0.13916268180374    2.57896389996030
N          -1.55222395569779   -0.65753012286402   -2.69239374854056
H          -0.42145966068486   -0.78493011001567   -2.70457049672370
H          -1.87617620311151   -1.06463549971359   -1.77830185541871
H          -1.69660241368680    0.35026578927444   -2.66348341514225
H          -2.00875485404932   -1.08191570696285   -3.49329424088935
