    26
        -50.45235271  Gyration_radius:  2.59613523763 Dipole_moment: 4.463
 S          -1.30837481573124    0.12152800298544    0.83858020836625
O          -0.70310090485246    1.25417021870807    0.16454528854460
O          -1.33996996760860   -1.06203432348811   -0.05032175185233
O          -0.64368684990183   -0.20792871125086    2.08873454378658
O          -2.78760522087267    0.48954009079179    1.13672506927073
O           2.46233089248478   -0.50817817691912   -0.53975407816312
H           2.99666238975025   -1.23629577240812   -0.21933711928292
O          -0.11434810316477    1.48882235288926   -2.37689906100573
H           0.79926614844836    1.83785002974528   -2.34479300798009
H          -0.47317168692505    1.60926072686721   -1.46767640488572
O           2.56186230484077    1.82349709460757   -2.07918338481921
H           2.70062738700029    1.03715217503462   -1.52798032696718
H           3.18448117892864    1.77300047286941   -2.80562985947147
O           1.68188904434422    0.84021504650197    1.50981230827834
H           2.16970171348350    0.00392158928004    0.28199487318850
H           1.33022018563679    1.65240390179502    1.12997885450117
H           0.88150774065309    0.39226741884013    1.87079781096876
O           0.26495768402138   -0.92541756070219   -1.89897378319335
H           0.07228137854985    0.07074118191262   -2.24717847070740
H           1.13776684212301   -0.85852613877146   -1.40990468525937
H          -0.48102437230408   -1.04584713359731   -1.11442449620481
N          -2.95857264745787   -1.84064144453489    2.29743437582418
H          -3.12005453590046   -0.31962369286089    1.60966153184097
H          -2.02891010235371   -1.59155665695171    2.62423911673393
H          -3.44459877982475   -2.34416169937119    3.02876564150140
H          -2.84013691334735   -2.45415899198819    1.50078678698981
