    26
        -50.46460238  Gyration_radius:  2.41123902912 Dipole_moment: 2.665
 S          -0.25711010372202   -0.33116279637531   -1.33201473854818
O          -0.12745971194882   -1.06536238926403   -2.68604575369480
O           0.92235611775447   -0.66772149910224   -0.52434276546977
O          -0.27757361015944    1.11357244580781   -1.59632428795537
O          -1.47852034902256   -0.78228504227766   -0.69545160111014
O          -0.58889164856714   -0.68555598138649    2.91214960964165
H          -0.61309316096273   -1.07872544700897    3.78517381423850
O           1.16686897332748    0.92030995379944    1.57175441584964
H           0.67783701726211    0.40217729768190    2.23887526635508
H           1.24380266664428    0.32176254835633    0.79254352730298
O          -0.63838314556013    2.33023967004594    0.54918756134319
H           0.18078206138129    1.90392215825672    1.05048842000710
H          -0.52124848190936    1.95308669071966   -0.41650943229437
O          -0.24410362216161   -2.47657076094516    1.03310597151344
H          -0.45824011089294   -1.43553101708784    2.26552786365969
H          -1.05830681627029   -2.40026014387994    0.51947492648549
H           0.39634050126975   -1.97249138621779    0.49308927199458
O          -2.35231586707921    0.67804692601082    1.32357403596243
H          -1.46100793126186    1.78146634727094    0.92031472095556
H          -2.23487769405600    0.09653148653386    0.53824098989070
H          -1.88853482465579    0.22004239149140    2.05002007371446
N           2.05989916213451    0.28186652945081   -3.03463767872174
H           0.72427171319322   -0.68732898599913   -3.04744490484480
H           1.54594555267133    1.11601694226120   -2.77198148692570
H           2.53074132233737   -0.05562178846515   -2.20386911634278
H           2.75082198023119    0.51957586031228   -3.73489869303133
