    26
        -50.46460239  Gyration_radius:  2.41125903784 Dipole_moment: 2.663
 S           0.42699899874617   -0.88912319519762   -0.98800994441808
O          -0.23030036411431    0.12245394057662   -1.79127485695950
O           1.79584735783342   -0.49805374207718   -0.62625406938135
O          -0.33893044880520   -1.18585789415461    0.22937373784094
O           0.50355076101299   -2.18566342586044   -1.82611304882983
O          -2.07723860467855    2.10107322200796    0.75444080179115
H          -2.86715031925006    2.56428151341175    1.03524676565389
O          -0.09601803688855    0.72637424566017    2.03510811102226
H          -0.20158002586111   -0.09024047246224    1.49353862593088
H          -0.86167741344552    1.28431713383568    1.80000642975900
O           1.72733679572945    1.67326725741553    0.59599562126141
H           1.06219042118708    1.35204250128685    1.34329975829110
H           1.90524873834912    0.78966056660981    0.07026495299245
O          -2.63565365830590   -0.10018531388218   -0.54935573194177
H          -2.38375620276230    1.28451065079347    0.26762335512403
H          -2.26067392859398    0.07392818287851   -1.42214602288837
H          -1.95678298950374   -0.66926548929349   -0.13577304478436
O           0.00035989021302    2.61564828031801   -0.95233292864118
H          -0.79191396702771    2.65488699274790   -0.38379389936270
H           1.10688725783727    2.21985826106823   -0.06089587598317
H          -0.08989184528461    1.77695250529411   -1.45933557471898
N           1.72583346903905   -3.24288846460051    0.20100238872047
H           0.98068658734995   -3.08480361720900    0.86846777941345
H           2.32682950875644   -2.42598367770379    0.22143746990128
H           2.25660255565558   -4.05736163551025    0.48219935544845
H           0.97319547282270   -2.80982831594652   -1.20272015524222
