    26
        -50.45235263  Gyration_radius:  2.59672151499 Dipole_moment: 4.459
 S          -0.73549361131982   -1.37240386263570    0.05720701182674
O          -0.75898406400286   -0.42598317345078    1.15588865537411
O          -1.12447638830315   -2.76352841007219    0.62803794850633
O          -1.66475945234466   -1.02260778726474   -1.00462588958991
O           0.63429728924651   -1.50925623697552   -0.48768302678829
O           0.64100172748817    2.34480727569879   -0.84216940094971
H           0.72187429967485    2.64118554360092   -1.74991534968145
O           0.75930939682252    3.21892558661217    1.81136424805091
H           0.68566908387056    3.08422699898170    0.85336047580791
H           1.38756586500437    3.92898175285040    1.94950875733044
O           1.27980001681096    0.62612017614307    2.42032739665640
H           0.45086997906172    0.15253867750158    2.17873165840180
H           1.04110001170626    1.57486280496143    2.44079658158114
O          -1.78190522515671    1.54204907112746   -0.50385842872041
H          -1.83487663686312    0.61215764978678   -0.82655117548653
H          -1.86289268558324    1.45132363464056    0.45151008775998
H          -0.31609600146788    2.03574000404504   -0.73574341814612
O           2.09619362544764    0.37500895730278    0.08089050644023
H           1.89019281287550    0.46936206026918    1.12895912591674
H           1.50974691618110   -0.50137538469140   -0.19389420875530
H           1.61305459564781    1.14477858243016   -0.34281969123437
N          -0.92962648484373   -3.64122686278542   -1.82091014219314
H          -1.10542328146693   -3.34142133412925   -0.18133020719026
H          -1.29272910790260   -4.34339521756239   -2.45309543850589
H          -1.36672953704329   -2.74706734704364   -2.02742377698161
H           0.06331683643931   -3.53380315931975   -1.98656230941973
