    26
        -50.46385734  Gyration_radius:  2.40982088572 Dipole_moment: 6.527
 S           1.32711437265454   -0.56953373750210   -0.74349334858463
O           0.53355236808293   -1.03070492724761    0.40144997626918
O           1.48892208366231   -1.65701622718049   -1.71846461897580
O           0.43298737172009    0.45270518652079   -1.51031777462120
O           2.55248947637320    0.06082730626927   -0.33320386512378
O          -1.97956116814399    1.05093125867194    1.35076173754506
H          -2.19430788273122    0.27349027612501    0.82285344627891
O           2.07659578507432    1.80404681458235    1.56452064329283
H           2.31680460330339    1.10907375101844    0.90468391751032
H           2.84262772521737    2.37605498102619    1.63403694138027
O          -1.90384473688254   -1.52131803144905   -0.12188079428761
H          -0.95608560732680   -1.31551275927273    0.14335673883644
H          -2.17612997271119   -2.25191425574197    0.43667756388763
O          -0.09746357878773    2.35636368426331    0.02706761687660
H          -0.88821300533451    2.00361679389602    0.51099336751064
H           0.64008120144804    2.33478561132184    0.66747159940625
H           0.23268412125144    1.27980525078372   -0.91167730196667
O           0.12001325940115    0.16695983524108    2.78225280591458
H           0.34937331426385   -0.41462592325498    2.03599092265909
H           0.79145262980219    0.85986388578836    2.75499402473386
H          -1.34461314760508    0.74389089993756    2.03631854971379
N          -0.86680806595264   -1.64197065275688   -2.57747026756961
H           0.21690008153753   -1.73933492801552   -2.24416389755320
H          -1.44174148280630   -1.68944490905989   -1.69797008721498
H          -0.93554121221652   -0.69842717528949   -2.95472696770369
H          -1.13728855332415   -2.34261199891897   -3.26006092820667
