    26
        -50.45234152  Gyration_radius:  2.54421232956 Dipole_moment: 2.494
 S          -1.46990519882030    0.45443703253187   -0.43958132476836
O          -2.93328975877892    0.74571790934175   -0.85910417539913
O          -1.26226196530605   -1.00142817045716   -0.61661396040093
O          -0.60090038876796    1.20967281445900   -1.31687064877703
O          -1.30303369577808    0.81015997633408    0.96119865824158
O           1.93576523903326   -1.41838827429705    1.38177906145783
H           1.47706516598626   -1.87123424601708    2.09072366440103
O           1.73999546633228    2.17267815581218   -0.91379178573544
H           1.80202769877372    3.02047900147071   -1.35661542346102
H           0.80620448329286    1.85893347126207   -1.06181010095284
O           2.67563101231396   -0.09889530341519   -1.95776623832612
H           2.36914587564687    0.78354737884312   -1.64651767993407
H           3.50418734509346   -0.27423536007350   -1.50588514726074
O           1.02404495091130   -1.79698837423663   -0.95879861134366
H          -0.01163658433291   -1.43788880997650   -0.87684026166035
H           1.58373577302425   -1.13433358618024   -1.48989888742931
H           1.39954207710794   -1.74092608941800   -0.00217630396650
O           1.24834186412155    1.06229639677284    1.60299365003271
H           0.27525028270171    1.02682507549831    1.46587919448039
H           1.74211146760941   -0.43968246363567    1.51100748513914
H           1.58897994061311    1.59508486339092    0.87018600389515
N          -3.62830752457820   -0.79060388953474    1.12714092651502
H          -3.28707116782832   -1.69050359445438    0.81409096310717
H          -3.44569248516336    0.20405396283022   -0.20077239748172
H          -4.37440948966206   -0.93572801399603    1.79512700516994
H          -2.85552038349057   -0.31304986289853    1.58291634442639
