    26
        -50.45234153  Gyration_radius:  2.54417676466 Dipole_moment: 2.495
 S          -0.99841934685711    1.22292581603700    0.26223663217388
O           0.32833805857840    1.64225268127970    0.68713130868116
O          -1.53853352198367    0.15835650957388    1.08088681461917
O          -1.96223284135833    2.43249931304860    0.36415640888982
O          -0.96755629141470    0.82729758702828   -1.16482327359649
O           2.12040657255268   -1.37754529277085   -1.12836420574953
H           2.63649382488514   -0.72577593598189   -1.60473674172329
O          -0.35706061249759   -1.74548165960209    2.32560427608243
H          -0.82199000420661   -0.97440314179443    1.89941334777128
H          -0.80960794003633   -1.89360201783097    3.15745562519276
O          -0.78408631533202   -3.21959067669398    0.14171903070708
H          -0.03983338814369   -3.82286839981117    0.08190394774016
H          -0.68342758791596   -2.73548744391864    0.99323295355846
O           1.86623001695032   -0.42897466385569    1.26136241854558
H           2.08823160464193   -1.05834267336684   -0.17486234581661
H           1.37405386774235    0.40818247107405    1.10672691115882
H           1.27689471751060   -0.97394775607523    1.80229987085250
O          -0.35281369220820   -1.47786880325504   -1.69923116433847
H          -0.68339780949022   -2.13420543704318   -0.99606976893678
H          -0.69844490482228   -0.46199531927918   -1.46123946618301
H           0.66698269907964   -1.44865583380224   -1.56342746944892
N          -0.27152873561741    3.69035656392403   -1.16815352556137
H           0.40340897613492    3.20153925461318   -0.58635278746154
H           0.07377897226955    4.61862123318519   -1.37559350872471
H          -0.35986086680547    3.17124068394439   -2.03243840448074
H          -1.50602543162931    3.10547294136817   -0.20883689395284
