    26
        -50.45234151  Gyration_radius:  2.54420512542 Dipole_moment: 2.494
 S           0.50352734915621   -0.51803495936049   -1.42794778438437
O           0.23933294382671   -1.68933566983073   -0.60638802366497
O           1.61417105268676    0.27069689672639   -0.93845193893553
O           0.85132217001299   -0.98260721734639   -2.86511329396482
O          -0.72214959066957    0.30656769670373   -1.53630580849535
O          -1.74464953029425    0.37989270022300    2.11681929225120
H          -2.48427862828637   -0.20858075384920    1.95952197877234
O           2.46156738484698    0.64805926561326    1.45098499220420
H           2.18165423882495    0.45898515092988    0.51384432712083
H           3.41926570651737    0.68312586876113    1.43358396128780
O           0.91418645598604    2.82297702911873    1.48156666419617
H           0.61679273291548    2.92147070659218    2.38892670727164
H           1.55895974925909    2.07883237534887    1.47824962305298
O           0.35713605306525   -1.11541081088147    1.97070075054886
H           0.32132897605572   -1.44364500347016    1.04442157799282
H           1.17157475935534   -0.59511413184073    2.02457368783690
H          -0.92833505700605   -0.20736325539204    2.14637409823497
O          -1.14935411808139    1.95669732666648    0.21637081200191
H          -0.92592344050573    1.26726664715167   -0.61008711770656
H          -1.48155249887083    1.35341935119284    0.98128385989935
H          -0.28950531617474    2.36696692077954    0.57243188778069
N          -1.42518575990860   -2.24897243712071   -2.82300406379274
H          -1.13850636554759   -2.44451556666211   -1.86771806659206
H           0.04936626976859   -1.51982283631289   -3.10537931030667
H          -1.88880496963560   -3.06199979707060   -3.20764172385467
H          -2.08194056735857   -1.47955550663239   -2.79161710875581
