    26
        -50.46385726  Gyration_radius:  2.40984056551 Dipole_moment: 6.529
 S           0.47566915927802   -0.01790600416686   -1.55319453415007
O          -0.58817817619816    0.17948241718640   -2.50008014613597
O           0.29149712690661   -1.38351703433896   -0.82231224273985
O           1.81441812706768   -0.14312945600737   -2.14587979625605
O           0.48025768383816    1.01031123405543   -0.50621969039821
O          -0.99708844081803    0.10607567229167    2.41722830512573
H          -0.03509502623455    0.08895482271437    2.35758122897485
O           1.82590892663504    0.41554767753213    1.56514598791782
H           2.20477052166087    1.22839278135972    1.90515938550653
H           1.25865668181001    0.68771949423138    0.78084053155705
O          -2.84696175897035    0.60523751540354   -1.24211303789927
H          -2.01040001093637    0.52199998356926   -1.76110034960256
H          -3.55956564317939    0.47715368975826   -1.87032637727163
O          -1.60340519177610    2.14796436251977    0.77347562653204
H          -1.27838486728052    0.94797368003135    1.99341247553271
H          -0.81084263593866    1.92840269571597    0.25255604300394
H          -2.33734820618139    1.85473469478146    0.21933093532018
O          -1.89569278052687   -1.34561052907339    0.39601764552610
H          -1.63941246118343   -0.90564021863966    1.24715992274610
H          -2.41428681881310   -0.68405915168004   -0.10202994985610
H          -0.63135775509691   -1.41647595460960   -0.34302436880012
N           2.90048108166157   -1.28022087938441   -0.19242272447736
H           2.34867428583253   -2.13382834968854   -0.12706898739382
H           2.64592761382719   -0.65892785924512    0.61719248787035
H           3.89529260949428   -1.47581529198228   -0.23791956593146
H           2.50646594525942   -0.75482000254250   -1.12140878474902
