    26
        -50.46278491  Gyration_radius:  2.54870055333 Dipole_moment: 6.701
 S           0.65412470321507    0.47762546834147    0.93804173907942
O           0.63365844676330    1.09877726751148    2.35949128271490
O           1.54803203287194    1.25184526913415    0.10140674067837
O           1.09343165448278   -0.91102905816833    1.11275242599260
O          -0.72246956985868    0.49563298343866    0.43544790029030
O          -1.55649879028752    3.01078846083244    0.35463209658643
H          -2.36199365211823    3.02543396410086    0.87412936197272
H          -1.28524570596163    2.06934111602910    0.29727605444692
O          -0.01066619670426   -1.54910664323009   -2.80272771289091
H           0.81525721801464   -1.29505990311205   -2.32492810929012
H          -0.02673921726146   -1.01162968588100   -3.59589532901250
O           2.15302412897576   -0.79456734348454   -1.44643435855725
H           2.00046447857687    0.08421851931938   -1.04362310986760
H           2.30654786098389   -1.36057399429740   -0.68452233854151
O          -1.94458584741064   -1.33313917022124   -1.00454381430770
H          -1.34667796594118   -1.41328988970824   -1.78608121551241
H          -1.31060448865107   -2.23776513412684   -0.06092982455863
H          -1.64619865050556   -0.51656391957417   -0.54584351274983
O           0.86042503564704    3.48161970898822    1.43962132860591
H           1.38629298944475    3.05252708773396    0.74742859718026
H          -0.03235646085985    3.58332383978574    1.04953524690430
H           0.72474194990721    2.08271846574622    2.18898610877903
N          -0.65322499147844   -2.74432591173160    0.68250968772540
H           0.09045419070673   -1.98951565026864    0.92086035177894
H          -0.20315906874057   -3.55714915028706    0.27409285314870
H          -1.16603407379533   -3.00013666687869    1.51931756941395
