    26
        -50.46438283  Gyration_radius:  2.63057753364 Dipole_moment: 4.454
 S           0.39717821791213    0.49740481519949   -0.08182156931832
O           0.29392986091747   -0.23839145411378   -1.33992452689457
O          -0.45792782842144   -0.11725236847329    0.94832594047218
O           1.77570045668389    0.57942446793837    0.36059015375024
O          -0.12640964968830    1.93427305594494   -0.32911157475679
O          -3.61584572723172    0.78558854248293   -1.64531296962780
H          -4.28296993864477    1.31142778774238   -2.08900203358465
O           2.05146911030520   -2.08388926880094   -0.77526786046516
H           1.35032553367981   -1.48596639198356   -1.13169410437855
H           2.83950378277172   -1.53419407943811   -0.76357010747415
O           2.72605087885953   -0.21510366575570    2.66516460912496
H           3.67233183555208   -0.06358419228578    2.66466506024602
H           2.37666655408292    0.24086475214435    1.86122856876718
O          -1.29042421480872    1.21637102802819   -2.89101429990920
H          -0.70337724584016    0.57322148147365   -2.44186133584444
H          -2.79901366645301    0.85622163992753   -2.19292007910698
H          -0.97420465350799    2.07655377560830   -2.60202339923981
O          -2.46222855877521    1.62868215840068    0.60807361065314
H          -1.07612836767729    1.95060622268386    0.03531999989147
H          -2.99962256783163    1.31445943507008   -0.15686280804398
H          -2.09138390901902    0.83255406482017    1.01786804685972
N           1.07771629973879   -2.05237370122613    1.67999471250884
H           0.69574705068989   -2.87774382149535    2.12820261208136
H           1.78531089054079   -1.55878143922187    2.26889214699150
H           1.51127270305638   -2.25562143764830    0.73289329659612
H           0.32633315310691   -1.31475141700614    1.46916790069790
