    26
        -50.45940119  Gyration_radius:  2.54084835456 Dipole_moment: 6.848
 S           0.46835575756590    0.08074739596710   -0.95652242088364
O           0.50927264151257   -0.11281056327659   -2.41177658443596
O           0.51430474612472   -1.21043782839386   -0.26417903411428
O           1.46272373880400    1.00403796610963   -0.46737301988621
O          -0.95599018557726    0.66006572684120   -0.70649936230774
O           0.51270264946400    0.16587475144177    3.19745196212537
H           0.13327979013500   -0.63909512421624    3.55211248953824
O           0.99203346278521    3.26517876897663    0.87141518399703
H           1.69499575821355    3.30359831566633    1.52297685242219
H           1.21984318588264    2.52737650428135    0.26979588885558
O          -1.28568301527949   -2.90487575229347   -1.02829900085991
H          -0.61152629539138   -2.29220665130912   -0.62702737895412
H          -0.80144444881066   -3.69804840212001   -1.26487245184102
O          -1.02711705563340    1.65457979437992    1.59345084161296
H          -0.52751602309976    1.09156197135758    2.22940398829857
H          -0.44445376526597    2.42735684759765    1.43129765427924
H          -1.01383251177075    1.04888214291574    0.25499410521601
O           2.40662235846830   -0.65396445918795    1.51173152401145
H           1.75721271474895   -1.06240333976861    0.90725790480170
H           2.68784832828421    0.12884453139589    1.02578892307856
H           1.28548583476263   -0.11645908430908    2.65153724903948
N          -1.83763534478428   -0.94320609876267   -2.69248965110900
H          -2.22992747642568   -1.07253147246252   -3.61894173240001
H          -0.77571504840470   -0.56750093197897   -2.69710044153981
H          -2.34844227229065   -0.24576668254009   -2.15253848701812
H          -1.78539750400952   -1.83879833632180   -2.13159498194762
