    26
        -50.46954184  Gyration_radius:  2.39868797108 Dipole_moment: 4.980
 S           1.51315766735726    0.30891844695614    0.38418304297449
O           2.87919320359532    0.30741604410495   -0.06125087759938
O           0.70429068964572    1.30630823613059   -0.34775677210997
O           0.88781837512351   -1.01175594987332    0.28383630668684
O           1.44338532484346    0.74212086399815    1.88169882108263
O          -2.53878922010375    0.15916929870452    1.20931848997385
H          -3.42423360341748    0.33905659780057    1.52787190178274
O           2.35628744394411   -1.21243949359389   -2.15256914657821
H           2.70715429476589   -0.61550694311445   -1.45138834297728
H           2.16431009693942   -2.03265408770553   -1.68997034673025
O          -1.46503311132088   -1.34740007777527   -0.89478851106595
H          -2.04021624104643   -0.84735742598721   -0.29474646404731
H          -0.61067889150374   -1.39834929859656   -0.41587524526988
O          -1.04238466192423    2.32818827289192    1.31459548064156
H          -2.05530437435321    1.02448582186480    1.21411459438413
H          -0.54356559551408    2.42648814397351    2.12909731608067
H          -0.37923182583161    2.05974792737725    0.63876673895816
O          -0.41099763197307   -0.92934491870666    2.59087519551834
H          -0.00559109322563   -1.42161603672081    1.85932615171446
H           0.75064123991130    0.16311907941792    2.30556645713286
H          -1.26705588668585   -0.62013076099651    2.24101237812772
N           0.05766090604886    0.06097645684757   -2.50255933386695
H          -0.71467006432638   -0.53638292364328   -2.09391089109816
H           0.94110201464317   -0.51575789753886   -2.57655401149212
H          -0.19320675031836    0.51093131454073   -3.37534641849292
H           0.28595770472223    0.75176930963871   -1.72354650374165
