    26
        -50.45437397  Gyration_radius:  2.57020885972 Dipole_moment: 1.873
 S          -0.52682554407007    0.51624163584412   -0.96666647214295
O          -1.31836262241676    0.50953741061303   -2.27101301346527
O           0.88294638372876    0.27952833524673   -1.25915633645605
O          -0.74240276896297    1.77970771780619   -0.28868681564991
O          -1.05175796949882   -0.60223167313817   -0.13004685095619
O          -0.41597452954380    1.12495613106436    3.49983654824577
H           0.11020388983298    1.19517765573361    4.29858122414082
O           2.16531851089701    0.42562379758044    0.98024082993476
H           1.83310853068202    0.35846445211786    0.04539027498000
H           1.95484275436575    1.33343415012906    1.25388650450173
O          -1.28465269307278   -3.01353759715405   -1.29553148330360
H          -1.19556456447301   -2.16259859879815   -0.82135208513440
H          -2.19609864352592   -3.28424350249721   -1.17537050751288
O           0.69623898191796    2.67139874012247    1.62757638547746
H           0.12726145943645    2.35149239680876    0.86782898408691
H           0.67377884400928    3.62798805911584    1.57369375437523
H          -0.08635296681678    1.81187859098699    2.87669982692249
O           0.23508652035981   -0.83692544525809    1.95302907018316
H          -0.14285191877997   -0.16542079991272    2.61006664652672
H          -0.38202119220478   -0.79026271336200    1.06652340603723
H           1.14138731870241   -0.40807808031799    1.61526723820663
N          -0.06502480985736   -1.41947578400235   -3.29582792857574
H          -0.42497206465966   -2.24428915254789   -2.81651101686448
H           0.81237029788104   -1.15331669124194   -2.86238419928961
H           0.07494908710748   -1.61922007343209   -4.27639976129958
H          -0.87463028129598   -0.28582898139045   -2.80967421303415
