    26
        -50.46066635  Gyration_radius:  2.40228832568 Dipole_moment: 5.231
 S           0.82538109026403   -0.37012273598948   -1.44085652782172
O           0.39805071560950   -1.02605117361550   -2.66837547260483
O           2.22513874297909   -0.05914449630968   -1.33606537152843
O          -0.02582201597836    0.80727721617285   -1.16963732829435
O           0.45982344198390   -1.40579378811289   -0.31514042210516
O          -1.03593434825162    0.33790624853510    2.32491114896676
H          -1.62338669559666   -0.06181412313253    1.67429833565569
O           2.72465461838115    1.30277762948458    0.84383030710105
H           3.67512573940229    1.40611977875503    0.91259120317720
H           2.56337491076265    0.86525972280247   -0.02799281940818
O          -2.13887653017861   -1.54233752683331    0.25772444124583
H          -1.16803694150933   -1.56658128872394    0.10362784470792
H          -2.34631558381462   -2.31288287181029    0.78907776428223
O           0.10481596187215    2.36704943217767    1.00783737448738
H           1.05139161145964    2.33760605452120    1.19380738459322
H           0.01955084140750    1.92842298178053    0.14120361598988
H          -0.74196327000271    1.19650500404444    1.94227089027343
O           1.33853104333192   -0.75188342369450    1.92740982074541
H           0.90736141424565   -1.17159206728492    0.60623660243305
H           1.91158341255240    0.01719844958248    1.73481329162488
H           0.48557559359810   -0.38285916439700    2.27276100455103
N          -1.98950742160764   -0.39109514376071   -2.17930826629637
H          -1.12826968289393   -0.88953267905315   -2.59766677944674
H          -2.66836787846485   -0.07295729763470   -2.86167507039646
H          -2.40648996254141   -0.95014566242355   -1.41799677527251
H          -1.41738879712311    0.38867092443870   -1.71768619625202
