    26
        -50.45444108  Gyration_radius:  2.55385051334 Dipole_moment: 4.685
 S          -0.82104428479108    1.13798195876656    0.21219473843109
O          -1.24923770557249    0.18357493730627    1.19451002259795
O           0.69890158855552    1.26613122947534    0.20917254182571
O          -1.27602441378219    0.85450549538957   -1.13077098151530
O          -1.27917780535546    2.54177672539360    0.62773347551291
O           0.01707993795821   -2.72306301200532   -0.54478128661457
H           0.07402868782085   -3.46460315992006   -1.14908977651876
O           0.25934925274252   -1.89689376588898    2.13731147540611
H           0.16816316370198   -2.44685934477167    1.34659884507392
H          -0.31131763298333   -1.12685000731750    1.97781687457961
O           2.77214267575552   -1.08707890351086    1.82306018401116
H           2.84335210771229   -0.23311864455975    2.25241274378909
H           1.89795644398341   -1.45834176788460    2.09534053413453
O           1.86070787317623   -0.75169944010327   -0.61551398886668
H           1.20145774702250    0.39839228601217   -0.20317115502680
H           2.38438357890123   -0.93716612930072    0.20992636537643
H           1.20100321799304   -1.47842228689740   -0.66853359914568
O          -2.33523908462892   -1.55896688099127   -0.71306002045729
H          -0.89216177907248   -2.33733756965532   -0.65471208663578
H          -2.53299036928547   -1.38056553473875    0.21229639817209
H          -2.05093939591410   -0.69423490555198   -1.06556898993268
N          -0.49042393065939    3.53069633112019   -1.60160675346782
H          -0.92760628917060    4.26192986574314   -2.14677438525270
H           0.51299327593453    3.65451483888801   -1.62759089294916
H          -1.00911996685751    3.12007988980740   -0.17202377844592
H          -0.71623690318361    2.62561778519939   -2.00517647408672
