    26
        -50.46066645  Gyration_radius:  2.40221574074 Dipole_moment: 5.230
 S          -0.59894990883825    1.57074757211890   -0.26348714678826
O           0.01362022213623    0.66379823129420   -1.25676285291116
O          -2.03400024223386    1.57579524561298   -0.35081385405870
O          -0.18729449823566    0.98130458136328    1.13536304249131
O           0.05652478767170    2.87032627782513   -0.29929064728856
O           0.71822542389228   -2.36854440476523    0.68433801521063
H           1.42827570689289   -1.71734808071549    0.67653099663636
O          -2.97382155628388   -0.86445757370782   -0.48842030789345
H          -3.93028038889277   -0.81136666396517   -0.45414666480738
H          -2.65311709089239    0.07006656388784   -0.52435453207278
O           2.32410645668962    0.10192420797664    1.26773522227770
H           1.39167574140077    0.41120342818626    1.31182636281085
H           2.59928439573741   -0.05239342950135    2.17306832870505
O          -1.39103083649720   -1.13355054571035    1.68856868865615
H          -0.76125813767836    0.14203887081353    1.40160951482796
H          -2.05875267017167   -1.21098061984237    0.97782699982823
H          -0.65074236087543   -1.74518139426203    1.44169216676438
O          -0.59529272934565   -1.92488764454006   -1.60305130234015
H          -0.34985919781909   -0.98160744847118   -1.62877760487556
H           0.32963999787045   -2.36577033064882   -0.22062786464184
H          -1.53850441276763   -1.91655746511363   -1.39879610750722
N           2.24243762782259    1.75478175635794   -0.86489753532516
H           1.50469366321170    1.09768810769991   -1.28007477705468
H           2.92718268256426    2.09837917042243   -1.52877597431803
H           1.52338110663836    2.48995676659698   -0.53649900243826
H           2.66385622813682    1.26463479107415   -0.05978319395875
