    26
        -50.45444111  Gyration_radius:  2.55388924892 Dipole_moment: 4.681
 S           0.34006440693302   -1.28561933355155   -0.49610434325153
O          -0.12903660080401   -1.72946608292070    0.79766794450575
O           1.41181102023410   -0.21786831561538   -0.30100468301722
O           1.11177395237307   -2.41945145513369   -1.18314103043079
O          -0.69558277121346   -0.81305382277891   -1.36977024979453
O          -2.06336021495851    1.59733345206091    0.95329336652237
H          -2.57923681978620    1.97898418324888    1.66497186901842
O           0.88982972508190    3.14306887919852   -1.23110735202014
H           0.03688030675867    2.77021148009113   -1.56220515822680
H           1.57823435907468    2.75231677415802   -1.77154520187927
O          -1.35117757795568    1.81511706548009   -1.76332439587575
H          -1.12186184567282    0.87180752238850   -1.80466134838692
H          -1.80863489419362    1.92695353132367   -0.91822146983157
O           0.63255579357043    1.74733126596639    0.97702300505022
H           0.80218042073860    2.42711788187035    0.27052910973185
H          -0.34614686997213    1.69124340386457    1.04851908226247
H           1.08019199338586    0.61743606185252    0.30528105707957
O          -2.67131280277771   -0.93887941685017    0.61394451577035
H          -1.81554536347369   -1.33536600049618    0.86552412355456
H          -2.34631673226572    0.64779573962135    0.87599111980839
H          -2.68839606229106   -1.00979607962107   -0.34623894434528
N           2.44292556004456   -2.89668285688425    0.95468797513867
H           3.17956836827706   -2.21908866023299    1.10023516000562
H           2.74273826968304   -3.79297347062772    1.31503048810951
H           1.61506431454704   -2.58864310391818    1.45746699169323
H           1.75279003467628   -2.73982864248979   -0.45284163118754
