    26
        -50.45974648  Gyration_radius:  2.50401622794 Dipole_moment: 6.040
 S          -0.38464822297908    0.39314267298434   -0.83841567887821
O          -0.01433351401476    1.51185888588253   -1.70050067993453
O          -0.57484682598318   -0.83076898870017   -1.62516258827220
O           0.64710755900318    0.16478479390667    0.18617915761619
O          -1.68560933171363    0.77574984440406   -0.13614019855234
O          -1.23907502017216    0.27736297703253    3.57787672421442
H          -1.79966521392182    0.76063657559928    4.18643723753136
O           2.90935996602459   -0.24593054038926   -1.08444837909391
H           2.09925738764557   -0.14648489836070   -0.52611578216687
H           3.53019451989129    0.40800081697163   -0.75802677929246
O          -0.34129223578148   -2.43314492055449    0.50774976639606
H           0.37527469888245   -1.90831012835070    0.88056156198967
H          -0.48063238400704   -2.05412618663177   -0.37981286705345
O          -0.11452655949881    2.05281179971514    1.89871380435784
H          -0.83893678084468    2.39787884070357    1.36946297272598
H          -0.74375926674323    0.95164798570775    3.05940737826708
H           0.31575225008172    1.38966385911384    1.32396100948080
O          -2.33790946274264   -0.98425652495886    1.49830474188436
H          -2.02414145400268    0.02032430080307    0.53585723529171
H          -1.71619948027145   -1.70559756041879    1.24142689535419
H          -1.98916011112899   -0.61387414813896    2.34388800009342
N           1.31515870650027   -0.04568902196560   -3.17578813462673
H           1.49839664957803   -0.06324245115694   -4.17294354357507
H           0.84662456521696    0.84642040668975   -2.79427614962842
H           0.58590303741914   -0.72724448875054   -2.84848933481140
H           2.16170652356901   -0.19161390113740   -2.56970635928822
