    26
        -50.45974654  Gyration_radius:  2.50413004757 Dipole_moment: 6.040
 S           0.48409525840794    0.23952676887279   -0.84402316168586
O           0.77678320840275   -0.47070431646651   -2.08566824849720
O          -0.41716081872133   -0.55387521710692    0.00708302384511
O           1.80824586308181    0.42249915036771   -0.10588048679334
O          -0.12566053026137    1.54511615993992   -1.12136629955728
O           1.40677038667610   -0.85275184260185    3.42255177740892
H           2.18584959920092   -1.12121871617886    3.91159693321411
O          -1.10448609022284    1.79879634370883    1.35824525466553
H          -1.35730919953297    0.87043088495169    1.40376821470793
H          -0.82998056695645    1.92813648278042    0.43147613347560
O          -2.57374982727306   -1.04335409007838   -1.41099695891408
H          -2.67372805034470   -1.99674661562525   -1.43811729766455
H          -1.82232567839716   -0.87176668879687   -0.79147316198137
O           1.42298519343271    1.47473683942200    2.11648959775456
H           1.41204977242646    0.68858390707608    2.71289158368707
H           1.68821699160361    0.91792681885749    0.83065423290614
H           0.48256356850662    1.75591604069917    2.02053242870067
O           1.41176284505223   -2.16458949853191    1.07387205427247
H           0.63907985592817   -1.69988629856182    0.69669650897468
H           2.16452427867609   -1.81615792232214    0.58818543470243
H           1.36110754930601   -1.43402099965078    2.62955458246356
N          -1.30487178513615    0.48866412744791   -3.14245677931208
H          -2.03571813520235   -0.10578229397871   -2.67576704520136
H          -1.53037345990307    0.77428030467640   -4.08889882743722
H          -1.08763485925235    1.27707346833335   -2.48293189261653
H          -0.38103535949097   -0.05083278720148   -3.01601760111999
