    26
        -50.45974656  Gyration_radius:  2.50411715174 Dipole_moment: 6.041
 S           0.99072388183645    0.05868808045894   -0.14050401038056
O          -0.37984357982191    0.58019857970282   -0.01525527566353
O           0.97912454302193   -1.09266256421961   -1.14366509458793
O           1.88468952706960    1.08401435725823   -0.67077133270738
O           1.45756753520179   -0.41426073832711    1.16773731341151
O          -2.60635701244184   -1.91291220540143   -1.99056776331510
H          -2.80125692884682   -2.35762230694309   -2.81665023509106
O          -0.25081213390904    2.70569396246706    1.52324292810258
H          -0.61976048453381    3.43278882842049    1.01839850598835
H          -0.40039471834099    1.89692279176731    0.97425025985576
O          -0.91805939649340   -1.46313667903440    1.82043982458828
H          -1.40183603560459   -0.72091523344521    1.44229468469953
H           0.01578091596810   -1.18442567740422    1.78553340031319
O          -1.12515255917342    0.26211267171003   -2.54925088842160
H          -2.17673661586430   -1.05965507090662   -2.22738319197992
H          -0.95161818945210    0.50762604209597   -1.61928352105196
H          -0.28510310627196   -0.07714428033282   -2.87047372939459
O          -0.64496990382475   -2.84134574745349   -0.43656251838111
H           0.33146552372957   -1.88573002283657   -0.84693700375422
H          -0.84203480979131   -2.54118632814920    0.48198754631658
H          -1.43911081317145   -2.60882417012695   -0.97418817382767
N           2.27738502683235    1.96839456080135    1.66040788094311
H           2.10589991334984    0.96076387965591    1.90319310826391
H           3.08206142889861    2.38555565514367    2.11500092859712
H           2.34785626227640    1.83974785399761    0.59328100008759
H           1.37049171935173    2.47731375116356    1.81572534740858
