    26
        -50.45899771  Gyration_radius:  2.47173069799 Dipole_moment: 5.017
 S          -0.11611875932235    0.34105064032299   -0.99800042299512
O           0.00850988683090   -0.81146478831349   -2.05777449354250
O           0.97174408158816    0.08556746187715   -0.02778122751604
O           0.04163336485173    1.61314671056228   -1.64761788404016
O          -1.41191977282129    0.12477590240438   -0.37213211549147
O          -0.80246534370658   -0.64818772311798    3.28309757038264
H          -1.61061185967600   -1.08839857517239    3.55373600198194
O           0.54266149271465    2.64943049502835    0.85053064235142
H           0.26041050446623    2.72357517703108   -0.07146053017943
H           1.07260779580742    1.84242959374417    0.86168856324683
O          -1.46672482366990   -2.45979648110086   -0.16478175407975
H          -1.65006722048021   -1.49504579219817   -0.28008624937152
H          -1.14372533136596   -2.75067731312057   -1.02168859731278
O          -1.59878080391932    1.42603916958776    1.97652817086336
H          -1.08936624446134    0.21937520886220    2.85303288592522
H          -0.87963981659121    2.06478515841639    1.80309788925646
H          -1.75135934444976    1.00343815215262    1.11206318901046
O           0.41502390519702   -1.83126085058190    1.42952001687023
H          -0.05223430530434   -1.37769988990697    2.25694051377863
H          -0.33247197492534   -2.24429604921475    0.86129577510773
H           0.74629463003474   -1.01794107696828    0.83145494752193
N           2.09794035218562    0.33500493862211   -3.08820573519064
H           2.93969249795218    0.21513647276236   -2.53998631192599
H           2.35997391133287    0.46066704356444   -4.05739642992806
H           0.82434368755266   -0.55483375877019   -2.58329610237508
H           1.62464947019660    1.17518015351597   -2.76277831235243
