    26
        -50.45974653  Gyration_radius:  2.50409824694 Dipole_moment: 6.038
 S          -0.85974313613754   -0.11653403176745   -0.50283504601989
O          -0.83240211237422   -1.56860834379057   -0.71231723734631
O          -0.31041695097926    0.60366825494001   -1.73224342367964
O          -2.22762980924828    0.35319160376567   -0.30264251411551
O          -0.01818195885597    0.23007824748400    0.65383760134070
O           2.99372196578640    2.18486448109724   -0.82427985071663
H           3.31401957781658    2.92829477460452   -1.33701681524865
O          -1.15131335757490   -0.83527592458849    2.77100866263337
H          -0.63391976245013   -0.43797581433262    2.02783040930593
H          -1.31132615452880   -0.11795389014394    3.38703520695451
O           1.77512625283079   -1.76790381656709   -0.13622083094799
H           1.71065642029885   -1.13567467809495    0.58770104080096
H           0.84996940003490   -1.92597897409761   -0.40077274109819
O           0.49402575681077    2.75508216837499   -0.01000911059602
H           0.31540407615459    1.88040080224276    0.38773610842881
H           2.13486556762410    2.46492284369405   -0.43349925243790
H          -0.03803427778938    2.76993623782021   -0.81041277706987
O           2.08227366715704    0.01538251933653   -2.08375412097752
H           0.69952243709356    0.33609954539170   -1.94452960925015
H           2.54235984962426    0.77876290899244   -1.66021247521479
H           2.17471407622396   -0.73941261909988   -1.45560405734744
N          -2.79304648522849   -1.77382676209147    0.93264160678488
H          -3.63801418966681   -2.33056357378227    0.99779202103060
H          -2.05859790512264   -2.15929555852640    0.28798922271196
H          -2.89370770317422   -0.81027919309746    0.46106080727123
H          -2.32032523432206   -1.58140118780259    1.85171716478949
