    26
        -50.45803547  Gyration_radius:  2.54950722865 Dipole_moment: 6.263
 S           0.33773136567930   -0.11135335279522   -1.07338097130348
O          -0.45244593407486   -1.27119056640749   -0.62565999506885
O           1.71448053393240   -0.17445562038723   -0.64674892882202
O           0.15603656567805    0.10706755726921   -2.50604810984825
O          -0.33879609319365    1.13070432962799   -0.40170943002039
O           0.72769755052318   -1.04149240932324    2.99532237020208
H          -0.03980464449778   -1.48280633884757    3.36098775277888
O           2.97489188361630    1.46882502581364    1.04441024731190
H           2.61419939559410    0.92915501717468    0.31225583270358
H           3.57077427991557    0.89487702882473    1.52993333345988
O          -2.90401134453206    1.67210667754286   -1.05545981942110
H          -2.00271425563900    1.57938222870558   -0.68483545560498
H          -2.96354869198571    2.56932669128854   -1.38809472362746
O           0.45844364105710    1.39818635184340    1.94753595258605
H           1.39531937618512    1.63253406516138    1.76606708131847
H          -0.02764396498784    1.23837861687121    0.59652598305321
H           0.50001853278572    0.51872584843399    2.39235436851988
O           1.41441133122722   -2.44899425731810    0.84597105715649
H           2.10741953081773   -1.92866855391322    0.42407085582205
H           1.04701274569127   -1.61560217764013    2.25684057898699
H           0.62072486455087   -2.20363819934176    0.33185103478203
N          -2.24250838419724   -0.58783121876271   -2.31574882133830
H          -1.28290992776077   -0.22426301688749   -2.68542792826307
H          -2.77041977665254   -1.15718256253076   -2.96742366532161
H          -1.84205844041664   -1.12460027271962   -1.50240874546398
H          -2.77230012930838    0.23280910832592   -1.95117987457091
