    26
        -50.45444094  Gyration_radius:  2.55367076626 Dipole_moment: 4.677
 S           0.32793436894633    1.06405811076121   -0.87972135015306
O          -0.84341778117164    1.68642690603032   -0.30394889661138
O           1.44363452777728    0.96304156876611    0.01702410712327
O          -0.05169315032200   -0.30804395562081   -1.42721401630192
O           0.75185405200565    1.82730960442280   -2.14109198778565
O          -0.35636896047247   -0.72769915214085    2.65683048340727
H          -0.90800536145616   -0.87812499949656    3.42584939726323
O           2.13066076278811   -1.26641889499158    1.44868471955344
H           1.42195190142415   -1.18284394815771    2.10191792811564
H           2.06283302959520   -0.46905040324567    0.89753671735822
O           1.17195578364805   -3.28601548748852    0.01013653775709
H           1.51440173357449   -3.17872844358637   -0.87864736021456
H           1.66918858093885   -2.64515158593829    0.57431385049383
O          -0.02910448946349    1.84697466814065    2.23221180136343
H           0.90338052603312    1.89044848828733    1.99601393189549
H          -0.49398813159324    1.92031722394225    1.37697912963124
H          -0.26907998700604    0.25750635012876    2.55928684227243
O          -0.99459288314324   -1.82864085679901    0.27557198445722
H          -0.30764394510855   -2.54391235871278    0.19399915801456
H          -0.84032976365126   -1.42501411739597    1.15844635069564
H          -0.51383392078927   -0.95272888883299   -0.68769309183260
N          -1.66072836709191    1.86152338376380   -3.00696490254020
H          -0.12412989372758    1.91998291950567   -2.66103969864224
H          -1.93231577977684    0.96861741032731   -3.39663411144266
H          -1.93927901846445    1.88669923432468   -2.02983825492166
H          -2.13328384353991    2.59946720392748   -3.51200928895575
