    26
        -50.47166718  Gyration_radius:  2.38842782886 Dipole_moment: 3.170
 S          -0.62313282276587    0.78832432625825    1.00507398487841
O          -1.39661325646295    0.13975161664784   -0.05742063734798
O           0.53012017637081   -0.02067891785535    1.38510455032945
O          -0.22670305676827    2.12954618436601    0.60509653526468
O          -1.54228934311657    0.91205159631127    2.24900970343739
O           2.49367278066925    1.22174912975188    0.09636274780776
H           2.24258906695278    2.13147670635592    0.27282086466833
H           1.88408050242298    0.69010009454669    0.64603132192724
O           0.17903198215777   -1.64226077276298   -1.29642465771375
H           0.41572989121612   -2.27859159480100   -0.61196612068557
H          -0.45720352521115   -1.04076236504623   -0.86505550077676
O           0.26375045818538   -2.61875057886639    1.43301454513252
H           0.44614722407033   -1.64990045854433    1.43793737681059
H           0.86287811262297   -3.00728142846260    2.07195374192749
O           1.65170799991979    0.35502953745164   -2.27383550634609
H           2.15666358167067    0.64081008851378   -1.47645574298135
H           1.26029909907640   -0.51571320280848   -2.03268543946422
H           0.47480936015652    1.21212415458272   -2.20850337053553
O          -2.25370842039546   -1.57139524999850    1.86410285555758
H          -1.47406877542758   -2.15613575621889    1.85556165162035
H          -1.90656002302051   -0.00297934083480    2.34911741582311
H          -2.32406660782720   -1.24353507299956    0.95674976430867
N          -0.45144496588826    1.77770672434923   -1.95652905635491
H          -0.66043523507775    2.52403950927809   -2.61106741191524
H          -0.32959155199082    2.12343138797087   -0.95793727873626
H          -1.21566265154916    1.10184368283299   -1.88005631661981
