    26
        -50.45479403  Gyration_radius:  2.47169393254 Dipole_moment: 5.880
 S          -1.04925577981143    1.14408393101563    1.41922668658302
O          -0.58204669152234   -0.22272608036850    1.97324927963607
O          -0.83098886835878    1.14365847302278   -0.01633898096923
O          -2.38957468766402    1.38088948354349    1.82785703980712
O          -0.09671618101107    2.15180684445856    2.06344204415427
O          -1.29006981782896   -2.06471159275506   -1.44284316960551
H          -1.70446146914558   -2.89315444287095   -1.68789961535189
O           2.32015583080897   -0.05888684022622   -1.19687600137919
H           2.98426011832029   -0.38938610082186   -1.80327852130671
O          -3.02934967713830   -0.34690862474189   -0.36975156999455
H          -2.35529546158273    0.35411884697609   -0.36605046649817
H          -1.99714672306783   -1.50503588010901   -1.04806646572059
H          -3.47774304158871   -0.24517317207971    0.47390768588828
O           0.73035478471235   -1.65239105649719    0.33925900736345
H           1.36893715841419   -1.10935449543378   -0.16418331863922
H          -0.03171072329911   -0.78568564720242    1.31783438261494
H           0.03711799031218   -1.90794299691221   -0.30046522858287
O           0.02993155057583    0.24936125194960   -2.41471097976793
H          -0.42174391436699   -0.60504369940436   -2.35086593990060
H          -0.34583974369287    0.77754330632914   -1.69132253492299
H           1.51085280597580    0.13599153723673   -1.74640203705926
N           2.20538395139238    1.26286957018629    1.40916044196124
H           0.87259735867679    1.85448385951577    1.78968328376723
H           2.96303447532818    1.91075416289079    1.58121320328970
H           2.34899038780228    0.43540434270728    1.97454158673661
H           2.23032638774639    0.98543501958766    0.42968018789930
