    26
        -50.45526235  Gyration_radius:  2.41582093582 Dipole_moment: 6.812
 S          -0.67270973237720    1.48768173774567    0.99713451572828
O           0.26735119527712    2.58357504583391    1.20260561222920
O          -0.91494515114416    1.21623606636563   -0.39781187014371
O          -0.17339343792102    0.27142984920312    1.68856331326930
O          -2.02333978603367    1.87276372727609    1.67312915165396
O          -1.74254702848469   -1.68125490390002   -1.42630102658153
H          -2.34895346029684   -2.10805014062020   -2.03264403022928
O           2.32127018273808   -0.43586565854692   -1.09305588209992
H           3.02560181759744   -1.02577419226797   -1.36627917978091
O          -2.71011411181149   -0.60145964807470    1.02412255440908
H          -1.88567572595539   -0.73189908310491    1.50798870273376
H          -2.58429102122950    1.09358423227848    1.46899157146034
H          -2.50829876835210   -0.85356727876769    0.10628069915109
O           0.50020249279559   -1.79043356975683    0.14576238771326
H           1.61094308950048   -1.01870132121596   -0.68012379529131
H           0.20088279354223   -1.08662565701080    0.75867103639309
H          -0.27418578833451   -1.97072344435855   -0.41288945273801
O          -0.14561720548621    0.08669678229306   -2.64643212991173
H           0.78352741019767   -0.05131981708058   -2.42926817505530
H          -1.22994057855173   -1.02216147439273   -1.95545487516338
H          -0.46504085894775    0.69630678281553   -1.95421308829155
N           2.25418250198032    1.01414080013944    1.16521408181016
H           2.44094682191580    0.58447109709766    0.22414898321790
H           3.09726031545003    1.16222503350732    1.70967826637602
H           1.63445573553358    1.89461425290176    1.07764190038532
H           1.54242828839934    0.41411077163634    1.64454073875462
