    26
        -50.45831555  Gyration_radius:  2.40232545048 Dipole_moment: 9.943
 S          -0.84266782075983    1.63762552966838    1.06773184181528
O           0.50472282469784    2.32546304771756    0.60720963388350
O          -1.77733570763852    2.60029578751384    1.53504385031469
O          -1.30816337287162    0.85873531260933   -0.08901883482908
O          -0.35311363082010    0.70098291357114    2.10739424355364
O           0.04850527829234   -2.68352790282938    0.54318009514135
H           0.08267496504561   -3.56648100534422    0.91277618959141
O           1.64485747524438    0.23425883703776   -1.84165516440678
H           2.25178826098381   -0.06546551540551   -2.51910364645151
O          -1.93178179713117   -1.33738170237899    1.56546839228971
H          -1.41865563016651   -0.60479040092412    1.97031367025901
H          -2.42979249938794   -0.90661757359181    0.86321833200121
H          -0.75058703823501   -2.23940158229820    0.95599743177221
O          -0.56782212237205   -1.11025548586031   -1.70942947996481
H          -0.42860636525136   -1.86291504256705   -1.11905969123911
H          -0.98264137856847   -0.41465648551571   -1.15601565595956
H           0.80952801929098   -0.30831900756323   -1.93706172965754
O          -0.13898049625521    2.46837280571469   -1.90528664865574
H           0.55535132673502    1.84096828070701   -2.15333572032333
H          -0.86219605106322    1.92810977664397   -1.54606057370701
H           0.33961496747319    2.64632489441990   -0.31087426566730
N           1.53854625165516   -0.43255549733485    0.82570602930456
H           1.66227863654439   -0.00080061454740   -0.11276863219377
H           2.41602955120380   -0.43366868921650    1.33526062728051
H           0.78353857139201    0.12203760496517    1.39522187309016
H           1.15490777196274   -1.39633829519100    0.71514783275735
