    26
        -50.45364250  Gyration_radius:  2.45987382774 Dipole_moment: 5.012
 S          -0.44424545613427    1.79753307930716    1.03295541068877
O          -0.11425519117175    1.41702620762555   -0.32000984267077
O          -1.92636126303160    2.22277139691441    1.09275776276536
O          -0.38839511380401    0.52223366301441    1.91320590131771
O           0.36499683919582    2.80513465214024    1.61711428655772
O          -1.74385209605334   -1.32518041921099   -1.69876449278424
H          -2.18461792492987   -1.73670122151354   -2.44275434933930
O           2.14578055947547   -1.44242682999462   -0.39748648516284
H           2.87682555285887   -2.03866035605918   -0.23104602326291
O          -3.02608883903098    0.02638647795546    0.26933068051154
H          -2.45330940481529    1.46055956012769    0.72672233531541
H          -2.61695628445974   -0.34985898422895   -0.53670040495025
H          -2.86609129954679   -0.60667640883040    0.97427721123365
O          -0.34097991534807   -1.67779279149693    0.63118354794093
H          -0.39222267788898   -0.35329434259024    1.38389703787139
H          -0.89678198969306   -1.66879101489529   -0.16736593670904
H           0.58055752747736   -1.70110498705335    0.29804372280890
O           0.52417650629695   -0.22369078367182   -2.34928176680093
H           0.35672697374979    0.54555631324492   -1.77930679635208
H           1.19729796685590   -0.73674268244185   -1.87701360130599
H          -0.91889805506596   -0.88757523680529   -2.05779012512082
N           2.51962640305828    0.87377151251471    0.84817804924031
H           2.36241333681613   -0.57900688877500    0.06027042213929
H           1.77306061971288    1.38966089698195    0.39188155612770
H           2.25553069637070    0.82380883232934    1.82552430558729
H           3.35606249909976    1.44306035540993    0.79217758435987
