    26
        -50.45450939  Gyration_radius:  2.45189439942 Dipole_moment: 5.292
 S          -0.19661837127168    2.07914202409583    0.00938904993381
O          -1.45144612872403    2.51963246293671   -0.77545292801807
O          -0.56497037730468    0.92839085770352    0.81397260156971
O           0.79872468633612    1.64086590269002   -1.07823821446548
O           0.37333041124081    3.16725759568481    0.71795782626942
O          -1.85644845769656   -1.75801308538852   -1.06273254618206
H          -2.29705344355607   -2.58233431562976   -1.27204509093367
O           2.03330154435690   -1.61814572525834    0.28149411603938
H           2.89578461249235   -2.01644230083417    0.15797550175027
O          -3.06366129749559    0.56308800205351   -0.32055399066255
H          -2.71920932689497   -0.24641553497960   -0.74883610346358
H          -2.78800598565242    0.49875916897321    0.59981060268431
H          -2.14894374588799    1.79994189427132   -0.69413109614072
O          -0.57959323112475   -1.74162885651786    1.20749793153419
H          -0.59416495923473   -0.76976983420828    1.25707786100772
H          -1.43829544882947   -1.86671665108225   -0.16076285270425
H           0.34611823057922   -1.95819240013364    1.01982665639692
O           0.56567075803800   -0.75624822053298   -1.83647004616475
H           0.65652324518228    0.68691246090710   -1.43525300329094
H           1.11741941460238   -1.17432769953075   -1.14286135544352
H          -0.33988575301375   -1.09347170475253   -1.70905924784764
N           2.30948319625976    0.83071443419351    1.30130299091001
H           1.33588546252965    1.03486353541924    1.50415318852083
H           2.56705846957432    1.46723613862373    0.55543628814295
H           2.85186515931726    1.08297639815951    2.11925572814396
H           2.18713133618808   -0.71807454691190    0.69124614238350
