    26
        -50.45450927  Gyration_radius:  2.45175653644 Dipole_moment: 5.290
 S          -0.16864279524664    2.06055851513151    0.29393269770141
O           0.71238207467194    3.14702135808989    0.52668379827291
O          -1.63403181832632    2.45963030468035    0.57271851785812
O          -0.14183919029249    1.73483633245597   -1.20895248797048
O           0.10779065474057    0.85318328932122    1.05104648577261
O          -2.06948409120159   -1.81394527507353    0.30675634652572
H          -2.52628795068856   -2.65261956698873    0.38033805409324
O           1.72539569583787   -1.50335130050478   -1.26168715885351
H           2.29178944871895   -1.84146401277873   -1.95641457145230
O          -2.50568259125914    0.39173299115705    1.83672082439373
H          -2.52393857963185   -0.37435049927098    1.22835339731115
H          -1.68522794929923    0.30109447594136    2.33261918021428
H          -2.08988965109218    1.69678867562250    1.04328963053402
O           0.39443154916515   -1.82859871495334    1.15133995652439
H           0.40376067802520   -0.86282204171626    1.27139648375943
H          -1.15550854260681   -1.94005275552703    0.69277298353391
H           0.96287972125096   -1.97979004997295    0.38125310639492
O          -0.79147224074002   -0.63247057064548   -1.80031288324544
H          -1.37756780107766   -1.02915366598085   -1.13013329970362
H          -0.47449054371533    0.79282175731702   -1.45288188225057
H           0.08752901302533   -1.04906211864727   -1.68148298912200
N           2.57923749380798    0.90511417804787   -0.49768474421549
H           1.98222240364826    1.04163161512247    0.31203320146662
H           3.52459468000834    1.14784810276739   -0.22532262394324
H           2.10103911171569   -0.61641535046560   -0.98961193910536
H           2.27101120057829    1.59183431688651   -1.17677008445630
