    26
        -50.44586020  Gyration_radius:  2.58705654916 Dipole_moment: 4.992
 S          -1.37039577841996    0.70122765176024   -0.60410492230269
O          -1.16343143983582    2.11279289801338   -0.40922970109302
O          -2.63055566027431    0.48388280018701   -1.50459805118230
O          -0.26202318799481    0.03163369702434   -1.24099433605991
O          -1.69299465790943    0.03148500820132    0.69326311110701
O           0.69755398372320   -3.21008146499035    0.21639583412597
H           1.34035244316057   -3.83928747786171    0.54808978530258
O           2.32269673032111    0.23650777572624    0.91040783206882
H           2.74899772027007    0.63714719471749    1.66979789649565
O          -4.16539148479839    0.98409722539801    0.60535969188937
H          -4.76674471429672    0.27039555102015    0.83078237842507
H          -3.28696808871095    0.71978159493163    0.93591422259027
H          -3.36324546834123    0.81089969566987   -0.94809584293279
O           0.26282445315059   -1.12117764370419    1.61155246966008
H           1.06848783458041   -0.55536433788094    1.32824943762288
H          -0.62251867535946   -0.62121116482186    1.21887182859185
H           0.34854852158975   -2.00809324513308    1.09992283400715
O           1.90572996158874   -1.49963771587131   -1.33624586949906
H           2.40775723083507   -0.97704531791149   -0.69907487509201
H           1.14732511947454   -2.69023954904452   -0.50834384373105
H           1.10654531304704   -0.96546064056619   -1.51050822460022
N           1.60514399151953    2.18649921669303   -0.61987772340904
H           1.76601515295111    1.90984640265493   -1.58076793267312
H           0.58636364806177    2.23462710771354   -0.50813974297287
H           2.03272965532365    1.01626137699076    0.29804864351832
H           1.97719739634653    3.12051339108021   -0.49667492985575
