    26
        -50.44586001  Gyration_radius:  2.58734278671 Dipole_moment: 4.990
 S           1.36872661429510    0.66098811070355    0.65854870937641
O           0.98315575978766    1.43264656665559   -0.56316632231690
O           2.40180272720434   -0.29370142392457    0.35050358216021
O           1.93087084362405    1.72531647183214    1.65700865495714
O           0.19562798847423    0.07661893452463    1.26255386558905
O          -1.15050623531029   -1.94138232453219   -1.09056502412828
H          -1.07739059116837   -2.44491958930134   -1.90290231976120
O          -3.03512872008595    1.27891349587852   -0.05699120506411
H          -3.92298487678519    1.14196631663616   -0.39173434068112
O          -2.30140870054249   -0.82832500849620    1.29053528823288
H          -2.85581064378107    0.54673871236884    0.59848496792504
H          -2.16780984194505   -1.47390530819888    0.58590893289330
H          -1.40385672359024   -0.49707692741081    1.48853468320264
O           3.18762385852459    2.89255941727137   -0.37146492389383
H           2.45989737357812    2.36024909372430   -0.74271026597563
H           2.94705523124513    3.81240157264037   -0.50474009913773
H           2.61054108602189    2.18894112085935    1.13107173367541
O          -1.08970567870322    0.58149904445786   -1.54972982423587
H          -0.16826931780361    0.98146744284833   -1.12402181270197
H          -1.08504297837966   -0.42575577633839   -1.36458391206027
H          -1.86054010699516    0.96638329104919   -0.99012380741170
N           0.87638642006998   -2.61430311039484    0.35740517775398
H          -0.33793659536290   -2.20892883798827   -0.51143471189299
H           1.42581072459383   -3.43899851398831    0.14783092890041
H           1.49938417724583   -1.80014717909892    0.31540563835079
H           0.56950820577669   -2.67924559175606    1.32037639625044
