    26
        -50.45450914  Gyration_radius:  2.45167540891 Dipole_moment: 5.291
 S          -0.17526408999856    1.68331113532595    1.22295331296729
O           0.58279373835674    2.85180460082510    1.48896962577205
O           0.45062386612312    0.51688578729603    2.00596797156297
O          -1.60532887762698    1.80288353218022    1.79302869962519
O          -0.29154344007486    1.31367639617452   -0.17609574872886
O          -2.09828627627335   -1.66190647427711   -0.70868795444894
H          -2.58466401965893   -2.35386836680350   -1.15824022785335
O           2.01657266670670   -1.49356200985296   -0.72874978768903
H           2.80093767263142   -2.04113474839753   -0.67658398505003
O          -3.01633047727745    0.83183362082495   -0.13031845579599
H          -2.25018046745516    1.41542103690016    1.12570460842144
H          -2.47522760275995    1.26660919455182   -0.79785945186446
H          -2.82085742817603   -0.12239219342293   -0.22289804426542
O          -0.01325351600268   -1.77563435376122    1.05496761494087
H           0.20200639745780   -0.41858374775379    1.65837372669820
H          -0.84090227042250   -1.79757007650726    0.54070770793454
H           0.71860356449509   -1.80390542155095    0.40377689109891
O          -0.20023455386530   -0.56298171776325   -2.11401438679268
H          -0.19453334219112    0.23640803832837   -1.55889586065098
H           0.62591945016668   -1.01671860537018   -1.88901272398167
H          -1.42998333120336   -1.29982731294512   -1.35859511534913
N           2.59678621842455    0.98600225264090    0.06401778553517
H           2.28989733492951   -0.57154927452653   -0.45125864479265
H           3.35713404143710    1.56246697581002   -0.27711855321950
H           1.72710154366117    1.44559229468815   -0.18722194311872
H           2.62821319859481    1.00673945741368    1.07708293901212
