    26
        -50.44586012  Gyration_radius:  2.58714707502 Dipole_moment: 4.990
 S          -0.60305930651935    1.35672323116707    0.73315266403445
O           0.24524143083638    2.41960725976468    0.25987256205474
O          -1.51564230373344    1.89739865552983    1.88232328632735
O          -1.54418029733157    0.91516290423005   -0.34198003209796
O           0.11966485851441    0.22041425656063    1.25165616487486
O          -1.14230272777751   -3.08197050302462    0.20111037279958
H          -1.02469799540383   -3.97144394340356   -0.13671325600951
O           1.78763538069680   -1.09760402889006   -1.37146159477820
H           2.14947983781140   -1.02252087806722   -2.25588018075488
O          -3.04948164659881    3.06086969547511    0.05174025324096
H          -2.08774856011077    2.54560261255216    1.42837422506613
H          -2.55255567924837    2.34755146261874   -0.38991699481012
H          -3.96738632783740    2.78010643599203    0.07272849454389
O           1.12306661952745   -2.23767247709191    1.17602297326028
H          -0.32184788646114   -2.85997834533480    0.72586867095516
H           1.64029646441223   -2.09558158667181    0.37386322583808
H           0.79051299348084   -1.34928682863049    1.40984543800584
O          -0.77625533161168   -1.14639585207669   -1.41706232874549
H          -1.14094782155109   -0.23158070790829   -0.94865099845963
H           0.24668059780678   -1.09795575281617   -1.39717853828300
H          -1.03344682015713   -1.91809106031927   -0.78939207252204
N           2.59859379227874    0.98636417746959   -0.08453662378247
H           2.11029214993336   -0.26215837966162   -0.85613647040511
H           3.35511618733176    1.56244864566401   -0.43338023338893
H           1.76281374466347    1.57614619064560   -0.00432741775713
H           2.83015863703949    0.70384480622201    0.86005840079233
