    26
        -50.44586021  Gyration_radius:  2.58717057674 Dipole_moment: 4.991
 S           0.13582869587784   -1.19298186095954    1.14004544185319
O           1.53328910975448   -1.19294872443265    1.48702086106876
O          -0.47489961444384    0.11386259869081    1.17854429748426
O          -0.07337628681894   -1.81422605516543   -0.20414423467793
O          -0.64455114220330   -2.10621000379711    2.14141713344503
O          -2.69717632767931    0.91677163914290   -1.65144034118630
H          -3.01611811661744    1.49297268683774   -2.34811822085214
O           1.02327323984071    1.91522785076968   -1.25174535700228
H           1.74954693829430    2.05748901042080   -1.86092269465266
O           0.25529061618057   -4.23315854527653    0.82868090004470
H           0.31379787616783   -3.46859854396974    0.22631767817322
H          -0.29739364220028   -2.99835640288945    1.94881837264879
H          -0.43588851817149   -4.80135243260770    0.48055862724868
O          -0.38422400277030   -0.11565407796426   -1.94001422763669
H           0.19472984508914    0.67771434488458   -1.64956979748545
H          -0.25483238947438   -0.88975743277194   -1.18246819874277
H          -1.35768391747365    0.20480597746852   -1.86649872018146
O          -1.45129103366499    2.35177926404023    0.13292864123253
H          -0.64205097450523    2.58817069535719   -0.33654969657128
H          -2.39265602668197    1.50582854173647   -0.90438474791326
H          -1.19428515493509    1.59160444460376    0.69016057457342
N           2.09505084836838    1.49251863863465    1.05703912099649
H           3.06533193860929    1.71878051632607    1.23948680423470
H           1.52868447547684    1.95556005476427    1.75742579923540
H           1.45179407970352    1.74371672422060   -0.32746167499244
H           1.96980947427963    0.48644109193735    1.21487363965865
