    26
        -50.45450923  Gyration_radius:  2.45174914586 Dipole_moment: 5.290
 S           0.57617901435655    0.82774841667932    1.82896660270191
O          -0.65517126471468    1.12254876744632    2.71289179474072
O           1.75317823721035    1.39124948601335    2.38393760491220
O           0.71413749213400   -0.70349891549967    1.86595481839540
O           0.25507571915411    1.24752290709816    0.47686211998717
O          -2.62104984686218   -0.30541966904909   -0.84120734340508
H          -3.36568847808755   -0.48368487024104   -1.41669927994085
O           1.20718050815464   -1.52473250349348   -1.74528215964707
H           1.70613420464732   -2.25320918813926   -2.11691013089210
O          -0.67900976113642   -1.94455910859600    0.16471609742862
H           0.09315006573081   -1.20956139508708    1.22103761365352
H          -1.46860161729570   -1.43887128285514   -0.10125070454196
H          -0.05184229628789   -1.89500447337178   -0.58668233922609
O          -0.50841128150506    0.63614141526362   -2.03898488558210
H           0.07452463511710   -0.11426577368014   -2.22899842868566
H          -1.89422105691710    0.08138180922597   -1.40889663132516
H          -0.15534328413593    1.01234749993066   -1.21374125451600
O          -2.42835564186989    1.73366020781213    0.94773288750927
H          -1.43287728501174    1.34433189155807    2.11529353191318
H          -1.79071513703940    2.23087469958512    0.42478334892744
H          -2.63816688522838    0.94209179596833    0.41224146077854
N           2.77345268301445   -0.09289563338521   -0.12990838976478
H           3.68423693207563    0.28711406789843   -0.35994694572356
H           1.84141602325323   -1.00338415797764   -1.17274687502974
H           2.85918029069094   -0.57704581124188    0.75664716490401
H           2.15160801055780    0.68911983844335    0.05019030256889
