    26
        -50.47166716  Gyration_radius:  2.38844227907 Dipole_moment: 3.170
 S           0.85177958192779   -0.62984238059726    0.94761581982002
O           1.06691410901540   -1.61835523539269    2.12409338606105
O           0.42049058139967   -1.40623098175361   -0.21005339033593
O          -0.17911842630167    0.32908910624927    1.35440870406611
O           2.11331035250543    0.04929466184990    0.69594343236561
O          -2.08776902120030   -2.11894738400249   -0.36470922578586
H          -1.12925688781019   -1.88892278576371   -0.38198712646111
H          -2.17743165570729   -2.93100236943839   -0.86537931148336
O           1.71338381142052   -0.17848991837671   -2.18018402257616
H           1.20903421955578   -0.74118045234501   -1.55938712931939
H           2.56388324240086   -0.05374107801094   -1.75262816531635
O          -1.82456831258912    0.74696707179473   -0.72184728016305
H          -2.21581534040923   -0.11542869292422   -0.90273114038018
H          -1.28822686849490    0.61109793719377    0.08228279517888
O           0.15194732807498    1.97038949767874   -2.02971324978602
H           0.71895955280944    1.20828512757425   -2.29462721838168
H          -0.69997030301683    1.56968157961007   -1.74135520371046
H           0.72857142041511    2.34269041964549   -0.74406185285557
O          -1.52986704666410   -1.81447983902209    2.32178053723690
H           0.14538214173897   -1.90247362571840    2.34804801498309
H          -1.44863819087764   -0.85367356543992    2.24396835656486
H          -1.91991493285382   -2.09862581150479    1.47507975166109
N           1.12618560742682    2.41596108391830    0.29411631316961
H           0.34042715773339    2.28760638176606    0.93660024859295
H           1.63436663291236    3.27550679791289    0.47310633980311
H           1.71594123660752    1.54482447509020    0.45162063705819
