    26
        -50.46095763  Gyration_radius:  2.41770430935 Dipole_moment: 4.510
 S          -0.70380338879230    1.01682459366350    1.20502809827518
O           0.20406643378681   -0.10873585948912    1.44488422811874
O          -0.62718442194691    1.27288894050455   -0.37187052406978
O          -2.06510715514550    0.71294602545971    1.53206975113250
O          -0.15490579836797    2.24549036162461    1.76970450759854
O          -1.07737491096609   -2.36730831250937   -1.27557693500578
H          -1.45211172994147   -3.17968808070148   -1.61847801310087
O           2.44614060751964    0.02307852434798    0.12076971242295
H           1.70500587912882   -0.16452728972945    0.74423073788578
O          -2.66269573260677   -0.14861543479371   -0.91766426905436
H          -2.83358392706374   -0.07724171310609    0.03744334483160
H          -1.46060707641914    0.82035408323195   -0.71293554539812
H          -2.21975777410559   -1.00513206221622   -1.07551552424139
O          -0.64678608051427   -2.57416854966977    1.31189984078556
H           0.07792520182463   -3.07546575300555    1.69002366040875
H          -0.41853326548264   -1.62539477985968    1.45792127360873
H          -0.90622872371196   -2.51714569864540   -0.31166378139898
O           0.87996370530705   -0.47172904368858   -1.98167564018680
H           0.33440476966078    0.25486778859863   -1.64900824250916
H           2.09655289730698   -0.27960858960690   -0.74792031098916
H           0.31952516604420   -1.25715433669786   -1.89106349801299
N           1.85630852148875    2.52929957437316    0.23571932762124
H           2.22995370208303    1.49981128241145    0.14593090090747
H           1.01441822989240    2.47170193525799    0.93910499233038
H           2.57205420516865    3.16221690135295    0.57832394425224
H           1.49236067584912    2.84243548289748   -0.65968202618375
