    26
        -50.46095761  Gyration_radius:  2.41782671798 Dipole_moment: 4.507
 S           1.65780594778893   -0.48083098538656    0.04005281117754
O           0.77949469000145   -0.50028328931248   -1.13333895676754
O           2.83464910021575    0.34340510661636   -0.21606632841737
O           0.85338756636394    0.36051531848556    1.13669404589406
O           1.89482504892859   -1.78677016041944    0.57932892822374
O          -2.38045446593462   -1.52702906721135    0.63102636504344
H          -3.13586875085418   -2.09488649038820    0.78855745465300
O          -0.38108643034464    1.77898893192825   -1.63873363550971
H           0.00901929698239    0.87302356239945   -1.65033680405220
O          -0.16990916895658   -1.67715234185390    2.26011738677310
H           0.45901712599896   -0.35709759122184    1.72426818372980
H          -1.00289674542166   -1.73646020456051    1.75274873268957
H           0.51279358212380   -2.15962200292071    1.76244541294078
O          -1.00614473495697   -2.38073445049585   -1.44406671600558
H          -0.24081026750008   -1.76970686984196   -1.32384201987591
H          -1.92566804813900   -1.87517426011476   -0.17690887391981
H          -1.28930301921743   -2.26415562516696   -2.35269850917776
O          -1.76448654871094    1.21942126956783    0.57308330674280
H          -0.90121117705822    1.06186147840263    0.98066411518851
H          -1.08421664872008    1.71674139332558   -0.95306219524116
H          -2.19419476262733    0.35082986593169    0.57080339592465
N           1.70431580288073    2.61823572374455   -0.37819852752812
H           1.45470367163919    2.88316377616553    0.57034081964185
H           2.26189847599401    1.67301464091970   -0.32758650107283
H           0.79556480596744    2.38828696186629   -0.95169069009562
H           2.25877568354742    3.34241531955989   -0.82360120096517
