    26
        -50.45556815  Gyration_radius:  2.4327691726 Dipole_moment: 7.580
 S          -0.23680242334228    1.82654279343304    0.53529690068063
O          -0.56005193176950    1.90302865960028   -0.87633088835567
O          -1.34688360450921    2.58680971784970    1.33632604946337
O          -0.20616196944460    0.46098681622582    1.04279104163934
O           1.04138377745490    2.47549552989649    0.85417656666444
O          -2.06053524099203   -1.60458944354414   -1.08089661570403
H          -2.69149804389389   -1.88165109521253   -1.74647769218469
O           2.10000043915029   -1.35101523259547   -0.57691591511806
H           2.66090115442312   -2.09438789290737   -0.80330673032420
O          -2.92759613616348    0.93362150155777   -0.07814689961983
H          -2.29563620870936    1.32968343636571   -0.69697878874886
H          -2.75350188377326   -0.01954922165916   -0.13473456238760
H          -2.15189776558383    2.09461626284323    1.08693013010266
O          -0.01710113419815   -2.13085552605046    0.67667781824428
H          -0.76858544367100   -2.30657785361014    0.08928424225477
H           1.27782179938969   -1.73577387104081   -0.13163436311304
H          -0.18330311032852   -1.20790496290224    0.95908789649549
O          -0.03884013171014   -0.31883300718798   -2.22351085609213
H           0.79909427461283   -0.60665799577810   -1.84046653335623
H          -1.33740941520776   -1.13136105539214   -1.56658859561214
H          -0.20986363948550    0.56423922004945   -1.83514938126564
N           2.42223743833338    0.43107531499157    1.41329368035579
H           2.42011020986044   -0.19565703550883    0.56822980215201
H           3.35642417693085    0.58761865000395    1.77857894310023
H           1.90407381111346    1.38590578319073    1.14783968261958
H           1.80362099151138    0.00519051737973    2.10262506811034
