    26
        -50.46954182  Gyration_radius:  2.39866421286 Dipole_moment: 4.981
 S          -1.16900600056178    0.24627754386277   -1.05010987631140
O          -1.25736243365511   -0.85632451749865   -0.06968834730282
O          -0.16192234104068    1.21844779631766   -0.61898715877296
O          -0.64458670516136   -0.41256835963378   -2.36382090440030
O          -2.45233023854395    0.84887006729672   -1.28384142208339
O           2.48373756971015   -1.32475403508895    0.09092343558559
H           1.73861667636651   -1.92270177009493   -0.17325164676453
H           3.25242796102784   -1.88361553707984    0.21190620055460
O           1.34344794751609    0.79591040923451    1.52419135261039
H           0.89110378600525    1.09824693615541    0.70826864105138
H           1.85351089161640    0.02271231155926    1.23637819663126
O           0.42936542656001   -2.72821634329959   -0.78417103146889
H           0.34346717896569   -2.75217620869771   -1.74018427163575
H          -0.28062202535501   -2.11919827072390   -0.47834254289780
O           1.84166738751108    0.27064579718141   -2.06896105210639
H           1.40610992492517    0.99125805864289   -1.58633310363490
H           2.24401837968318   -0.28710777868829   -1.37774255721835
H           0.33417857700740   -0.22360834225904   -2.39659698277839
O          -2.30791611365707    2.35985489620036    0.87295246795309
H          -1.61073553323358    2.95536368566228    0.58498598319726
H          -2.53300136241155    1.84221542689835    0.06512138828556
H          -1.65428017933561    1.24533950447734    1.87225677177854
N          -1.15842679354587    0.36686528828693    2.19005239133205
H          -1.29078980603630   -0.29591771386961    1.36585924778289
H          -1.52569797193014    0.00054861780407    3.06073385173527
H          -0.11497421240512    0.54363255745824    2.20840096888859
