    26
        -50.45556822  Gyration_radius:  2.43275775971 Dipole_moment: 7.579
 S          -0.03346213392718    1.09685841208612    1.57310811872635
O           1.30568518667794    1.26911671488920    2.15061772702477
O          -0.88314349889259    2.33615533415358    2.01378707685176
O           0.07434202730000    1.14993911465110    0.12094298658480
O          -0.69353002562506   -0.10215345991228    2.05229779619537
O          -2.31821825398110   -0.96708377043350   -1.29514266386432
H          -3.10349805762502   -1.50790829642846   -1.38801827247353
O           1.84398734992313   -1.45329322105105   -1.02897740607782
H           2.30453395712639   -2.02287366570768   -1.64700994762478
O          -2.82168443854813    0.92876084108430    0.79134091191146
H          -1.74155539508681    2.15798228825692    1.58503589943131
H          -2.70019278332308    0.54944218782719   -0.09375863026607
H          -2.34938395811963    0.32036065134355    1.37958770215658
O          -0.59901204348886   -2.13568785912208    0.35560344132807
H          -0.63795620347780   -1.47196490916560    1.07522851444598
H          -1.72184899535481   -1.45194451749219   -0.66906179043564
H           0.29725112286870   -2.07494432321449    0.00242612580647
O           0.07750935071068   -0.00804020996418   -2.23425145399710
H           1.14482712854374   -0.95484148231840   -1.56279438160704
H          -0.80177290503849   -0.41667726637864   -2.25903165245123
H           0.01829234200250    0.56866734832878   -1.44486610987014
N           2.70979363846380    0.83474406074334    0.09177412967406
H           3.71006393516518    0.98927656479385    0.17078477293368
H           2.17589196996002    1.00232603477792    1.05996581812500
H           2.26538731654859    1.49504144501819   -0.54525065952678
H           2.47769336720000   -0.13125802676292   -0.25433804300128
