    26
        -50.45282977  Gyration_radius:  2.46171734291 Dipole_moment: 7.471
 S          -0.00245523216785    1.73288465137532    1.30072670263623
O           0.16819154502440    1.74809921776347   -0.17722628422529
O           1.27454139690496    1.97533151833012    1.94542772248302
O          -1.12854060813721    2.51529773575720    1.71274350671084
O          -0.32406581416612    0.20960945124090    1.64199620909619
O          -2.25342684661865   -1.21505150460361   -0.94255606437803
H          -2.96299935266677   -1.83739935851132   -1.10679801305383
O           1.83394331262988   -1.46946015045999   -1.10631426587223
H           2.23883411017615   -2.01584706333395   -1.78083998325345
O          -2.84044636239801    0.48364349273061    1.20681616344539
H          -2.60537683328760    1.42545633792882    1.24200442688819
H          -2.80938783836039    0.18073708002109    0.28489346427964
H          -1.32175627160948    0.17456355420316    1.61475895570353
O          -0.29125838489233   -2.30577248816559    0.50462955820525
H           0.51720657531064   -2.22224368292300   -0.02516623538279
H          -0.23499483689059   -1.59179961846552    1.15619951835769
H          -1.59594993047587   -1.68975370734662   -0.37398251525537
O          -0.08492967946421   -0.05398946870496   -2.14149718104000
H          -0.93170685019429   -0.49261114862320   -1.95316558126054
H          -0.08232689292132    0.71787276672176   -1.54308838666209
H           1.10414253913761   -0.94982857575811   -1.56558521779385
N           2.52917268815637    0.91298533990789    0.00881206404154
H           2.50886037538484   -0.09825333896038   -0.21559811823877
H           2.35371787545327    1.15521904005078    1.02318500453691
H           3.35060807353528    1.37407272915630   -0.36608599782368
H           1.59040322253691    1.33623719066746   -0.34428943214589
