    26
        -50.45282965  Gyration_radius:  2.46189355312 Dipole_moment: 7.474
 S           0.69856129389302    0.16992511258898    2.04463903300294
O           1.80978200376296    1.08857930410319    2.20376841841037
O           0.08769968696413   -0.36581408388577    3.22363567716989
O          -0.40491046407568    1.02671123703272    1.27762509604406
O           1.06478739281345   -0.90167849976824    1.07899805563323
O          -2.39303754835795   -1.09463160014285   -0.71769507203157
H          -3.28855676346191   -1.22264279355751   -1.03299735546574
O           0.95813843223462    0.62634629976316   -2.33287306013497
H           1.11934457408145    0.53924145180872   -3.27300914765920
O          -1.50149199486540    1.36995915152614   -1.23252047601161
H          -0.69843033718137    1.26375461368577   -1.76642294302906
H          -2.16262301826798   -0.15201445672985   -0.91573864868351
H          -1.18137552590540    1.55224789734040   -0.33707947079279
O           0.21031593923428   -1.65837736150548   -1.34387046534829
H           0.67343510454545   -0.28406641595588   -2.01071719842352
H           0.52246170371036   -1.56667261148780   -0.42302241094926
H          -0.75840283754904   -1.66057090137879   -1.26287366818113
O          -2.32969104567557   -0.50271125813433    2.02058222085751
H          -1.26297955847558    0.60103437696672    1.56060840997294
H          -2.32539588914657   -1.05364663936194    1.22114441661286
H          -1.65222955778565   -0.82772997092878    2.63623478655908
N           2.60581849134844    0.63859671543884   -0.16808272523355
H           2.10308755434365    0.94053669397193   -1.02224686065693
H           2.43727066474915    1.23199064305507    0.68962514021439
H           2.07727207346349   -0.23095082207793    0.22228051522695
H           3.59114962560435    0.47258392763255   -0.33999228710431
