    26
        -50.47350527  Gyration_radius:  2.40657542151 Dipole_moment: 5.128
 S          -0.95187809071564    1.50164801669688   -0.30201907690229
O          -1.14169359977452    0.16275827193561   -0.88163439904738
O          -0.33080607830360    1.39128768324407    1.01458740138546
O          -0.19555293551469    2.34760076264830   -1.20189215545228
O          -2.36592392657743    2.12245807862721   -0.11939950395799
O           1.06264772520718   -2.19925902669466    0.65790103577451
H           1.32054988304375   -2.91423129393723    1.24146931358484
O           0.86520796630440   -1.20724049725320   -1.98270265833302
H           0.02585654627076   -0.75839096156936   -1.74792861953440
O          -2.64075960118665    0.56187540944281    1.99153776826576
H          -2.73152258203890    1.62338847163839    0.64491434360595
H          -2.56275427923386   -0.37999627612591    1.78463261546856
H          -1.72157678529997    0.87907242893283    2.03253628400488
O           2.09384683067110    0.35021921907923    1.06409937988707
H           1.85549767935528   -0.59174401653741    1.00237206678598
H           1.08009118711956   -1.74456332017942   -1.20586526364444
H           1.23899701125980    0.80996536595707    1.21729886460188
O          -1.59932611373922   -1.76561912102522    0.74217229402619
H          -2.11957814987319   -2.40300722836690    0.24908429092672
H           0.09745749805113   -2.06014026216840    0.79107762425864
H          -1.45615434798584   -0.99657971135330    0.12085821847528
N           2.07049775538134    1.07006849128257   -1.44604130877830
H           2.84912291152864    1.48852917153724   -1.94191664205470
H           2.28844455383755    0.85408578982676   -0.42175975400420
H           1.21943926849382    1.70414513142912   -1.43454589482784
H           1.74986968372067    0.15366940292761   -1.86883621449893
