    26
        -50.47350532  Gyration_radius:  2.40642473378 Dipole_moment: 5.127
 S           0.20692288964416    1.72596754150033    0.48015118661701
O           1.42175222065123    1.84068266121892    1.26019583046643
O          -0.32621110584280    3.15784287347835    0.19066464742186
O           0.48102347815204    1.09799779216710   -0.82188450279374
O          -0.83811854897986    0.98533288549682    1.18066501097721
O          -0.61054514092845   -2.31093321554910   -0.82625087461914
H          -1.18174230178141   -3.05357229456909   -1.02742501909980
O           1.94476375556389   -1.12044401979015   -1.04747556955864
H           1.52409398310263   -0.23773099645684   -1.11885175482892
O          -2.62626510924123    2.03592249464362   -0.45544227725257
H          -2.31829180321399    1.54316627118660    0.32525840307266
H          -1.23511648731241    2.99340615443570   -0.14670426352513
H          -2.55203564340875    1.40460808180604   -1.18482303420736
O          -0.26428057450607   -1.51163685042214    1.81397881673434
H          -0.61221755846480   -0.59797004397692    1.71570314604529
H          -0.42863292069323   -1.92835775046295    0.94956033980156
H           1.20560945057178   -1.74591232146646   -1.07622865854451
O          -1.48044388604409   -0.04638829048805   -2.00791825375831
H          -1.02467023244662   -1.51713040970745   -1.23496612356167
H          -0.73518208476953    0.43548373803306   -1.54906935888739
H          -1.28620249904948    0.01045842674514   -2.94553261682609
N           2.18264522581682   -0.64455040233624    1.52993895515607
H           2.33299430101301   -0.92767452400968    0.52062267211860
H           2.96171129842883   -0.88379779985201    2.13251838326034
H           1.99496504730170    0.39994782030189    1.51898242819900
H           1.26347424632871   -1.10471780194127    1.82433246755803
