    26
        -50.47350519  Gyration_radius:  2.40660677956 Dipole_moment: 5.131
 S          -0.22959204786106    1.25383496989104    1.27632529804863
O          -1.09714467527551    1.36585749321219    0.10757152326442
O          -1.07365270976632    1.58729921132915    2.53916342050327
O           0.23631579096221   -0.13376872306058    1.42492887704763
O           0.89185167135951    2.16867595830645    1.22325600709038
O          -0.01016140041045   -1.88669120755522   -1.68527794677783
H          -0.38081200065140   -2.49080174654281   -2.33012086117823
O           2.19495524205391   -1.14533365346161   -0.07756065492162
H           1.57905261726581   -0.85954318895146    0.62961329700748
O          -3.01384234356358    0.15578126727490    1.46420995477176
H          -1.90286358092682    1.07952971425008    2.39335572556803
H          -2.62979120963760    0.65485292401230    0.72218996522635
H          -2.76368681379331   -0.76301236810015    1.29315324347432
O          -1.34652587307149   -1.99591840313784    0.65608205841877
H          -0.58483654122860   -1.93723741540631   -0.88788207171893
H          -1.13385284630922   -2.75803218832578    1.19834438237614
H          -0.75679950275626   -1.25919738391760    0.98418742597139
O           0.03107981142361    0.84071687875003   -2.22014374107314
H           1.62801850448075   -1.57170342354296   -0.73719737630236
H           0.00441441021710   -0.13194974491400   -2.18549093759951
H          -0.52031585171563    1.12847877258945   -1.45943006646190
N           2.21220932514899    1.36064914620448   -0.88172441023093
H           1.41734338181563    1.26634474082949   -1.59074618245780
H           2.46496725978347    0.37072899505447   -0.60328414421840
H           3.00140739411302    1.89127529884367   -1.23222783187329
H           1.78226198833299    1.80916407637407   -0.02129494395684
