    26
        -50.45462507  Gyration_radius:  2.43341131979 Dipole_moment: 7.035
 S          -0.04397419793356    1.50823067404848    1.23579454775527
O          -0.03733850721971    1.03954431084681   -0.13873133230261
O           1.21951855641522    2.22509527023670    1.52784982354955
O          -1.22686074044748    2.24205385553873    1.59124294116706
O           0.06256936009379    0.21808387468938    2.13697233328466
O          -2.35246154314369   -1.14133569933204   -0.94428087877226
H          -3.17219579680471   -1.62209794375130   -0.82011849061758
O           1.84407476260703   -1.33064203894360   -1.10770518942943
H           2.42304745057336   -1.78813234900921   -1.71869306008800
O          -2.93994824260479    1.32670003769992   -0.20093404703801
H          -2.38005391138805    1.65037388134732    0.53995550104454
H          -2.74955399714320    1.92104216464154   -0.92969699054596
H          -2.53884510000793   -0.21081120071078   -0.65160156744045
O          -0.29792500576870   -1.86272393445434    0.65862960549413
H           0.46927861525556   -1.82253376689099    0.06879044951437
H          -0.16231456800078   -0.59984310960555    1.59825017876164
H          -1.06933153889466   -1.63795896630931    0.09578366079547
O          -0.13553647129658   -0.25314539060693   -2.40904605760425
H          -0.13681501526379    0.44209627964250   -1.72325636131357
H           1.12210208195448   -0.91410599864985   -1.66765345894754
H          -0.94056907197562   -0.75480921213679   -2.21721847811810
N           2.64372836939513    0.25137837802629    1.00016027536191
H           2.04163952374209    1.24494963503056    1.20006672717545
H           3.64396011217217    0.41948434930187    0.96917022830556
H           2.39877030551191   -0.34963368760839    1.78393615208127
H           2.31503459017294   -0.20125941304232    0.12233350792865
