    26
        -50.44582852  Gyration_radius:  2.4969892736 Dipole_moment: 4.792
 S           1.78546534290427    0.01878850931209    0.55224550769016
O           1.00318044411968    1.20336384877039    0.26071986330236
O           0.90965289350239   -1.00394407298304    1.20269299947225
O           2.46279564220784   -0.52306019153528   -0.59252156670410
O           2.85689720203856    0.38153277834803    1.62709951282346
O          -2.73727317739602   -0.51805697253212    1.22669878641293
H          -3.66666509942002   -0.52247760148625    0.99264943487949
O          -1.14356631054367   -0.48613919933928   -2.25945934411436
H          -1.26191436497317   -1.05391438343518   -3.02250189381219
O          -0.99944041893798   -1.83140734665091   -0.08613533864990
H          -1.01680412005926   -1.31302184096925   -0.97169566841642
H          -0.10314473257796   -1.51905410758229    0.45562923218059
H          -1.75533887386074   -1.43177270328807    0.48335282491943
O           0.93581103068316    0.38240639518246    3.45836729104188
H           0.64826833851477   -0.19225522348272    2.72438383493537
H           1.05539394350633   -0.18717150787593    4.22153929385066
H           2.31849736460043    0.61479934097107    2.40806310207544
O          -1.60471567366069    1.40401399300539   -0.10680539819162
H          -2.35482425623435    0.33201957259332    0.86634716481977
H          -0.64850646473168    1.43345326383307    0.11992152839602
H          -1.63895555394304    1.05620611712361   -1.00497809602886
N           1.05766500644922    0.80471126399146   -2.57656826964234
H          -0.26153822736365    0.03118382476626   -2.41898293137909
H           0.95692499655318    1.70304702169026   -2.11800902617720
H           1.68788811396534    0.26629451211622   -1.97361048034759
H           1.51424697465382    0.95045471945698   -3.46844237334003
