    26
        -50.46278489  Gyration_radius:  2.54826437712 Dipole_moment: 6.697
 S          -0.44689234292405    0.22845681461199    1.13318795905436
O           0.84161683840012    0.52383969918664    1.72576516976337
O          -0.37346738665684   -0.88791843668792    0.18651776962172
O          -1.43284056066481   -0.18499083053928    2.25731917295841
O          -1.05298988634172    1.39036569970581    0.47418714549107
O           0.51053769812499   -3.03076235102351    1.47294591759432
H          -0.15203174486726   -3.70675371466932    1.32133296971080
H           0.24444509032360   -2.25978708553971    0.92706371448215
O           1.80701861328139    0.96294402488966   -2.45863619333597
H           2.71391607587577    0.65376304126505   -2.47228923548864
H           1.71308422817107    1.47708079741755   -1.62083206155249
O           1.50605302560460    2.25304122605383   -0.14920599042174
H           1.47806751058152    1.60612805288439    0.58471676431030
H           0.64826051904627    2.68395298527880   -0.09400855845837
O          -0.19321220343018   -0.77391490984249   -2.43374313982691
H          -0.17919585324489   -1.02048807383727   -1.48225510314017
H          -1.21700828208445    0.24411602974332   -2.27800557218332
H           0.61621899738525   -0.22295774448465   -2.56094723354562
O           0.41196425017583   -1.36937670145838    3.58760904311871
H           0.97899356241173   -0.67490693257969    3.21878685503675
H          -0.85387510250121   -0.68140503425555    2.90830705817072
H           0.55255623299440   -2.14397458625817    3.00472976519684
N          -1.89810302982782    1.05392390368220   -1.92809609448016
H          -1.75622830061544    1.90418905669944   -2.46377213155220
H          -1.59740663684697    1.21100322774144   -0.89656782988010
H          -2.86948130240548    0.76443184199915   -1.96411016063849
