    26
        -50.45554470  Gyration_radius:  2.50339414393 Dipole_moment: 5.891
 S          -0.28865471515291    1.24500703013134    0.62015104885345
O           1.15223254097637    1.47757812900829    0.79126343237846
O          -0.66941812668167    1.06134467008918   -0.76147360244003
O          -0.61404901378954   -0.03872051307173    1.42001403977476
O          -1.05757558581738    2.29055764049741    1.30939104743197
O          -0.86860292256443   -2.42079860503682   -1.87352902845615
H          -1.28398041105069   -3.28091051472309   -1.94661270590594
O           2.51236514183007   -0.48411087016754   -0.52237481567682
H           2.20694833600196    0.31627913913629   -0.06343714594823
O          -2.66444941172098   -0.48092926833061   -1.56158656041614
H          -2.97773376048654   -0.05318996634892   -2.36123118911976
H          -1.59577027666333   -1.76320346915361   -1.75610086044477
H          -2.01198547941439    0.13797184994081   -1.16989750848865
O           0.57664055004929   -1.98373108895369    0.40099079319063
H           0.08499800383215   -2.21617661383089   -0.41307337669318
H           1.41890639450599   -1.54912079911646    0.09018849887446
H          -0.14071246050446   -0.88613722040207    1.01502214681531
O           0.84839366563157   -0.25576636880838   -2.64178516517759
H           2.15898489891583   -0.40151540153602   -1.43208576541929
H           0.38042124148304   -1.10015384634164   -2.62638351650882
H           0.31477877817885    0.34697456884250   -2.09844711770875
N           0.52539530002718    2.01735545935587    3.18990462709547
H          -0.35708377293925    2.26491518878428    2.52183247161950
H           1.14826171593266    1.76072891606541    2.36616224566134
H           0.87632776011100    2.79341469366358    3.74134907442493
H           0.32536158928835    1.20233726031556    3.76174893227862
