    26
        -50.44582854  Gyration_radius:  2.49695945374 Dipole_moment: 4.790
 S           0.07377299637961    1.73161177629439    0.69890182401141
O           0.51952138647479    1.36150486328412   -0.62945684570632
O           1.09123413731271    1.60951289786474    1.70526242744143
O          -0.40631428495110    3.21598223757915    0.66751863250110
O          -1.14138441576098    0.93493727465986    1.05208393676553
O          -2.11260479810093   -1.91991504755424   -1.05596193587293
H          -2.19656143540906   -2.79638129523188   -1.43451628931175
O           1.45355399486130   -2.10271263396142    0.33754038743066
H           1.88029624328658   -2.72916537981479    0.92409062576169
O          -2.60885154620466    2.41688001532515   -0.57922138899245
H          -1.17354294046899    3.18899141685146    0.06357317814913
H          -2.26265431805812    1.66023522719142   -0.07002795731210
H          -3.44950306700093    2.65346362700846   -0.18117033221153
O          -0.90140377553773   -1.49916266182892    1.14037741840802
H           0.05998419676062   -1.72085216771317    0.85821569530558
H          -0.98626908015406   -0.41016881973831    1.17724802172067
H          -1.48950946985162   -1.74187696938866    0.33367650560453
O           0.10978051496960   -0.89811308080392   -1.93430103144782
H           0.21681450966590    0.00599548324124   -1.56323724923129
H           0.76105879286345   -1.43765031930100   -1.47215561057935
H          -1.36767777609762   -1.46659005903036   -1.54418242514254
N           2.88372056736125    0.03406874087581    0.29841424706162
H           2.77746205663650    0.45921274756688   -0.61557184322636
H           2.35260699566155    0.63547533458764    0.93621554746512
H           2.05511051549844   -1.26068501871258    0.32818139600568
H           3.86136001985592    0.07540182074103    0.55850306540125
