    26
        -50.45554493  Gyration_radius:  2.50346396392 Dipole_moment: 5.888
 S          -0.04874143307286    0.42140326944119    1.35641291921695
O          -0.60649587730107    0.92152540827213    2.62016857998179
O          -0.44723708926350   -0.93117622427602    1.04134631460919
O          -0.62063516389004    1.38885209845819    0.29301664129998
O           1.40908205003366    0.60842249389454    1.33472903258554
O          -1.30537935614433   -1.52965652548584   -2.46622173233539
H          -1.87859764524361   -1.49026051372492   -3.23284892107368
O           2.37507264500586   -0.35342929431030   -1.02461576471544
H           2.22608045111897   -0.02818527883466   -0.12103373950244
O          -2.69520862849499   -1.57306066296650   -0.19645715589462
H          -1.93906698964613   -1.25133767549190    0.33917907055729
H          -1.89267464464381   -1.53768343002624   -1.67250559543913
H          -2.91248005821957   -2.43790736481750    0.15756425354454
O           0.80294031113017   -2.54284827787212   -0.80615766144086
H           0.18093179052972   -2.42125481462046   -1.53456098457294
H           2.05160418272322   -1.27778863314661   -1.01462240517333
H           0.39133425661700   -2.11288028961308   -0.03869458259375
O           0.17891715763924    0.70768371342712   -1.97320010317283
H          -0.34209452552715   -0.08102930478652   -2.22787372564378
H          -0.31734183912962    1.12866394473679   -0.67986465932782
H           1.09171237571864    0.36783053736825   -1.75819301715929
N           0.88230038610181    2.87701381272949    2.33723695502263
H           1.37367294754738    3.32067575751589    3.10612226773095
H           1.44753855888669    2.11969192988191    1.84608628490295
H           0.06855297202614    2.15200043539862    2.64500493349661
H           0.52621317548177    3.55473486885999    1.66998281514321
