    26
        -50.44582853  Gyration_radius:  2.49702800252 Dipole_moment: 4.788
 S           0.73960160785736    1.61508811923917    0.57927099296788
O           0.36875475849717    1.63713060884223    1.96666937382127
O          -0.45899139076921    1.72630159500336   -0.30785277383321
O           1.58835881693265    2.88992393681078    0.28039117968408
O           1.50945321142065    0.44746631999416    0.19973717073787
O          -1.36570869311243   -1.09403649891446   -2.49168914582252
H          -1.74130720410515   -1.90589082320394   -2.83575962818738
O          -1.11498057082783   -1.97196558460293    1.23052613301464
H          -1.76397889470794   -2.29686318188338    1.85650097640538
O           0.68561351986706   -1.73892888690723   -1.03211828503125
H           0.25601604165590   -2.16067900728168   -0.27950682387010
H          -0.47800919683649   -1.33227908738585   -2.09917175714515
H           1.09260672591197   -0.92094604715394   -0.66907412273054
O          -2.06956282554644   -0.11587200919613   -0.25217525729992
H          -1.39051593266161    0.73958664325047   -0.21691335069463
H          -1.92151665409588   -0.47996204807966   -1.20146099997712
H          -1.69261576245296   -0.83094695018765    0.37997862264717
O           1.07208125986414    2.55775020600267   -2.30162511724936
H           1.68772280716772    2.86845525883189   -0.69110856029325
H           0.35630516417512    2.12900752664267   -1.79613025063712
H           0.67378182850659    3.29556147848258   -2.76861447279500
N           0.86068581979851   -1.02057981197019    2.57373022925986
H          -0.32668327829575   -1.60965248166592    1.79471640969369
H           0.66282561904853   -0.01607879574623    2.52504061337046
H           1.06952594504387   -1.26003204655437    3.53507743838485
H           1.70053725765520   -1.15155844237172    2.02156140557646
