    26
        -50.45462536  Gyration_radius:  2.43336180981 Dipole_moment: 7.034
 S          -0.88231421896965    0.57748912586725   -1.64189274093565
O          -0.09548227433250    0.61004309237103   -2.89701862707141
O          -1.23324550832984   -0.95196578865762   -1.48112866791761
O          -0.02788922332154    0.91358690944460   -0.51673838327720
O          -2.09731676740103    1.34237629972780   -1.69478978782358
O          -1.24273400779458    0.29370862479324    2.46842485755884
H          -1.93753220230657    0.09423227689853    3.09772041100899
O           2.24142109849707   -1.04591529905436    0.53427257031327
H           3.10374650125429   -1.26834055670017    0.88750587092129
O          -0.48044236569435   -1.73864216469612    0.85603548220215
H          -0.78611847487789   -1.03324986987764    1.46538915808027
H          -1.02871909716963   -1.25757813442542   -0.54612554184492
H           0.48085185929863   -1.63213747156791    0.80381769611401
O          -2.34529285108237    2.05820954312783    0.83726334578515
H          -1.80941308005591    2.85412733134646    0.83719925996798
H          -2.35744632212342    1.76343935425942   -0.10086692676103
H          -1.63752537911565    0.94168162013335    1.82771053404025
O           1.33335085789018    1.09213467551608    1.70814308316970
H           0.61268893702248    0.83603296641595    2.30108464385221
H           1.95883401456472   -0.20288374464098    1.00089822840492
H           0.87322869648961    1.29091527852220    0.87001629435133
N           1.51007194886488   -1.12766388426698   -2.11923158537158
H           2.31683659018537   -1.28673235213661   -2.71379967714527
H           1.80266224750887   -0.93065865156116   -1.13983156942159
H           0.83326223673796   -0.25417863877978   -2.52906983540924
H           0.89451678426167   -1.93803053205902   -2.11498808279089
