    26
        -50.46278521  Gyration_radius:  2.54843988042 Dipole_moment: 6.689
 S           0.03805903395830    0.14108417134042    1.23054449528861
O           0.42265357342771    1.03774668917858    2.43634053458147
O          -1.41748699628003    0.25731752913091    1.09071247528037
O           0.68975129104362    0.70333870727314    0.04445492969799
O           0.47296640641156   -1.21467238801523    1.49779323263696
O          -1.42960230211473   -2.30648317514452    0.03738848981479
H          -0.62474623460045   -2.09667089987158    0.55348232373061
H          -2.09913591565110   -1.74530145341609    0.43897920896546
O           3.31104470024400    0.69373306451853    0.44042671991917
H           2.35844340052546    0.66322476329179    0.20635778496604
H           3.58732739114819    1.60330056505321    0.31671040997338
O          -1.02193332186275   -1.68512565676013   -2.51918567037138
H          -0.42836881619124   -2.35462148546300   -2.86225970293831
H          -1.20387328874999   -1.94397711166185   -1.58383373520805
O          -0.25879462480719    0.84973532697619   -2.40314336348261
H          -1.46259566280491    1.28207001519783   -1.71482268696202
H           0.29187753808052    0.81638765618320   -1.58955153980190
H          -0.47436585895886   -0.09362011471415   -2.59852477050900
O           2.59333264782048   -0.26260412479873    2.85092154994402
H           1.29287005843479    0.65113993683653    2.75070393924359
H           2.07848853416182   -1.01905249683847    2.53072211706123
H           3.10568493230455    0.04014939264360    2.07284833791735
N          -2.29167996870677    1.47476150784821   -0.99560795610522
H          -1.94988763545155    1.00149405772990   -0.07999624523784
H          -3.15246366234547    1.03873293077082   -1.31027254285234
H          -2.42756516904524    2.46791260267772   -0.84118830555632
