    26
        -50.45831551  Gyration_radius:  2.40225034664 Dipole_moment: 9.942
 S          -0.27101874540404    1.18172325981837    1.74980258724927
O          -0.77588104378011    2.01372039060510    0.63145078338936
O           0.85235723769832    0.36754102728202    1.26351064279959
O           0.00634307710020    1.90289309609324    2.94213879467752
O          -1.47222106583385    0.17450533059348    1.95709780490807
O          -0.75131785518233   -2.35325002449091   -0.22345636546726
H          -0.89610294342845   -3.18888683676936   -0.66827329372059
O           0.66945146854103    0.68842776022343   -2.56432991873343
H           0.79883338868915    1.08250020967345   -3.42765449231210
O           0.02154498431858   -1.88277093407562    2.48947490134941
H          -0.25432726139517   -2.33472579318823    1.67897589027916
H           0.68149460425351   -1.22666743115147    2.21037425151992
H          -1.07846945873117   -0.62586565517206    2.37841543362736
O           1.54308479096633   -1.25405408461005   -0.72238907993814
H           1.45053441460660   -0.70944641201415   -1.51566549578290
H           1.43688107114207   -0.63810403891837    0.03363313219497
H           0.18448902669107   -2.06867623358171   -0.43435024220921
O           1.48559344156730    2.29957603617166   -0.68940407632268
H           0.63575658657212    2.41042937325932   -0.21046851669303
H           2.03855233334235    1.81919206199822   -0.06473308020277
H           1.03282617006935    1.34673980694235   -1.90020729899963
N          -1.48726645636934    0.18295655411861   -0.99603437925678
H          -0.78439173091865    0.30866587785765   -1.75659296950094
H          -1.26147854871233    0.95865698071961   -0.25494433692625
H          -2.43547581230639    0.30380508407620   -1.33651771948827
H          -1.36979166349577   -0.75888538546012   -0.56985292643985
