    26
        -50.46278511  Gyration_radius:  2.54876063028 Dipole_moment: 6.702
 S          -1.14250402780805    0.06430387357953   -0.48045551511789
O          -0.73971268937848   -0.26898849468927   -1.83141093595583
O          -0.41329302556350   -0.72039319205843    0.51968767057940
O          -1.00379659023377    1.49296095675088   -0.17822770831304
O          -2.64983488839543   -0.26146921900017   -0.31184580293243
O          -0.87695139564549   -3.29270435364821    0.07688052944540
H          -1.21486978284469   -3.63420431979031    0.90641117392510
H          -0.61354155675162   -2.36341190990986    0.25078044082249
O           3.07245739458304    0.89037955291664   -0.14588569084816
H           3.67377611684511    0.30870644961343   -0.61313109264577
H           2.39436139542097    1.16232971898199   -0.81003704813338
O           1.17279266463882    1.54371745642102   -1.89370703924450
H           0.57771551806417    0.77994759534150   -2.03674840401824
H           0.58373431576535    2.21673525835001   -1.54083854191594
O           1.68480592457228    0.00193962946347    1.92923220370938
H           0.96797655833626   -0.47239583053732    1.45223403415121
H           2.33017238314257    0.25244914819784    1.22542929185750
H           0.93130978531115    1.23421625170166    2.08193783888206
O          -2.48888821325044   -2.31271668080079   -1.84221507567080
H          -2.77996762943547   -1.07862685637333   -0.87822944994887
H          -1.81757568567630   -1.78626385865317   -2.30262773844036
H          -1.98065154600634   -2.90763434806430   -1.25294630376141
N           0.25005456376344    2.10986915825276    1.97722777550970
H           0.77802565495252    2.96463245616002    1.83341792254159
H          -0.36726415595098    2.19905848434874    2.77700168333224
H          -0.32833109845610    1.87756305344863    1.08806579219273
