    26
        -50.45987896  Gyration_radius:  2.52572501402 Dipole_moment: 7.497
 S          -0.46115448062257    1.39643370475067    0.42851112248269
O           0.83759704551283    1.70447410824941   -0.42655041390501
O          -1.10100485616367    0.24250863413461   -0.22854860633459
O           0.05697970905465    0.97065597609831    1.74068765248733
O          -1.25111567276258    2.57923443198637    0.45401082450962
O          -0.10887603783419   -2.88383474012020    2.23995608829507
H          -0.14684669801756   -3.22898217130368    3.13309519924570
O           0.72620267865436    0.88798428564325   -3.45509396747285
H           1.33805654953149    1.62171139100137   -3.53151015441955
O          -1.48840442531195    1.93214364165036   -2.27291614829106
H          -1.62615192079946    1.18975966210924   -1.66456868471630
H          -1.45416210665654    2.69608907331612   -1.68660975024053
H          -0.12371188105609    1.28184184093713   -3.16313945870466
O          -1.87290495212204   -0.94249477742311    2.04047821730559
H          -1.40319261557088   -0.20885605652870    2.45971321216646
H          -1.86600654006122   -0.68996532428727    1.10033643884620
H          -0.88346363278974   -2.26626670911129    2.14836892804148
O           1.01383847295788   -0.77798679895957   -1.39688887513745
H           1.02927833439866   -0.42348281561665   -2.31181886267412
H           1.10130030174514    0.86604951478644   -0.85855530798273
H           0.08025871748956   -0.69046031944041   -1.11522331602490
N           1.55088757903755   -1.06179670273259    1.27324065216353
H           1.01551749249987   -1.88454886188905    1.66883113609174
H           1.58134705757827   -1.13623499928066    0.24368685592426
H           0.96897105496748   -0.17070215116015    1.52000302163340
H           2.48676082637561   -1.00327384685757    1.66050417667492
