    26
        -50.45987906  Gyration_radius:  2.52575426422 Dipole_moment: 7.498
 S           0.42727218852613   -1.46648920137137    0.11488843245425
O          -0.64577996918899   -1.51614876095974    1.12368189435318
O          -0.33790663025194   -1.43407731513305   -1.27302815981527
O           1.11616649235052   -0.16735549764038    0.21557044911316
O           1.29020075351952   -2.59745490742358    0.10492363332288
O          -1.23777744991028    1.91986229198555    2.85054187633055
H          -1.62496888036130    1.93198364101370    3.72698938571014
O           0.91765132323718    0.38600583583337   -3.50220436680140
H           0.50305538217758   -0.26326514701430   -4.07234233152681
O          -0.43408149777994    1.23400725798365   -1.36935108663878
H           0.29788543077753    1.03669845922539   -0.74984176195191
H          -0.01571373838844    1.22120102695222   -2.25690382435576
H          -0.50968395560145   -0.49325128962052   -1.48337615721928
O           2.55448009151754   -1.04483733113340   -1.86931778240620
H           2.38298940287038   -1.96401136710044   -1.63622062632498
H           1.61242679808725   -0.10050105684369   -3.00893855300653
H           2.32192674772526   -0.56231704859973   -1.06112166386096
O           0.69709841576755    0.13747685664644    2.83828376091232
H           1.11813657484702    0.22821910451470    1.96520816349513
H          -0.41888444583151    1.35876666087784    2.91696678264689
H           0.20167561736315   -0.68788975535398    2.74930716245790
N          -2.07170315752333    0.57908395653291    0.72529811772450
H          -3.06580606314995    0.40585701065063    0.62007804671191
H          -1.52938335452114   -0.35240763978757    0.90289330238072
H          -1.67915838599196    1.00808364855553   -0.12813615254573
H          -1.87011769026464    1.20276057720077    1.55615144883807
