    26
        -50.45987903  Gyration_radius:  2.52573005712 Dipole_moment: 7.500
 S          -0.54890887010149    1.42285914780078    0.14331697113964
O          -1.39699798984495    2.54222800629026   -0.08372112010470
O          -0.62935093067430    0.37085618669586   -0.88593834524604
O           0.86775789662681    1.75692312972152    0.37346100590583
O          -1.01526033387851    0.73282033818382    1.49212126072843
O          -2.99963073436827   -1.68376287031437    1.19420038609858
H          -3.28220616960933   -1.38121402168927    2.05854535710618
O           3.29374809786360   -0.70707786839850   -1.41031192471874
H           4.17501538197691   -0.40394161362197   -1.63321187693524
O          -3.26998088884750    0.47438756411883   -0.43747071138895
H          -3.22718155983063   -0.95921673642331    0.57294276175969
H          -3.20827088180892    1.38086935631863   -0.11642323336433
H          -2.42868371149325    0.34395404581985   -0.90149605927860
O          -0.38903586917200   -1.72932445882123    0.66667425378312
H          -0.48389462062888   -1.21034606704075   -0.15803277267732
H          -0.82724862800771   -0.22419185252381    1.40408357199689
H          -1.29888731547677   -2.03446932120793    0.87153880745143
O           1.57757495905871    1.12726160455944   -2.19115339983253
H           0.70072497227488    0.73494922648934   -2.03306365621366
H           1.64952991308751    1.77784680401429   -1.47969751591341
H           2.66349779644571   -0.07566857544514   -1.85080121471624
N           2.02990120337058   -0.46799426566945    0.90384848366346
H           2.63031279766590   -0.66606891602458    0.05521931328198
H           1.57459595935880    0.51054414458756    0.73526268464230
H           1.26572992879042   -1.16093988107579    0.95194917323734
H           2.57714959724021   -0.47128308634683    1.75815780957298
