    26
        -50.47393292  Gyration_radius:  2.40349331625 Dipole_moment: 4.923
 S           0.18606533353339   -0.37532483260085   -1.61601634076160
O          -0.44320039757235   -0.67926778891801   -3.00329502811110
O           1.60073176160854   -0.64563180005205   -1.70657905656569
O          -0.09833018587703    1.02117670279422   -1.28896652862229
O          -0.48012033693172   -1.26147133357674   -0.64390773256310
O           0.83727131090506   -1.50083343563321    1.64989633188836
H           1.72731695243597   -1.20316746442540    1.39221427166755
H           0.35902781031112   -1.60859037199162    0.79867753595973
O           2.94287154744998   -0.21776368708784    0.45243017685206
H           3.86935184614045   -0.39723689209886    0.28532828390634
H           2.47410684515581   -0.39362924321808   -0.40842443412784
O          -2.12072201733749    0.49102801918664    0.26997934046194
H          -1.64417593341508    1.13378478015455   -0.28649529008624
H          -1.61628306743043   -0.33340379347518    0.05140522177988
O          -2.96752607749995   -0.65767470571515   -2.15428370122520
H          -3.03833520569167   -1.57772793834100   -1.88749979255745
H          -2.98847995036994   -0.13493576473991   -1.33557891653811
H          -1.40625698331374   -0.61045310206427   -2.83552285793617
O           1.35338977355075    2.00421838446943    0.68285473719418
H           0.36562906687947    1.40851529260761    1.72811794543381
H           2.11168163822002    1.39445309532910    0.67698198853783
H           0.86383837472844    1.79208511669957   -0.14501014483492
N          -0.32109160117723    0.76504475860115    2.24979427712285
H           0.12071954315546   -0.20985144287465    2.18598325150052
H          -1.20119285367113    0.73793073739972    1.68276291845435
H          -0.48628719375219    1.05872670957829    3.20515353318459
