    26
        -50.45462543  Gyration_radius:  2.43333958207 Dipole_moment: 7.033
 S           1.08599488197152   -0.27300419253625    1.59778198074242
O           1.02942256962091    0.08398283393125    0.19120358954775
O           1.47756388785588    0.90938400027307    2.40035134206004
O          -0.40554086951741   -0.52779087942221    2.04314052302057
O           1.87056084892318   -1.44622430822296    1.86610054021853
O          -0.43942378887286   -2.07274522087403   -1.79819424108706
H          -0.79971115144858   -2.92887767192792   -2.03415777403501
O          -1.23687086992001    1.97529621435828   -0.98705613158088
H          -1.58643025310044    2.66707211375165   -1.55015192902080
O          -1.90017299248117   -0.60997926045836   -0.05572074610430
H          -1.81663634091173    0.29236623279882   -0.39759805666865
H          -1.40671659559225   -1.17357961116338   -0.68918682582368
H          -0.99164177825666   -0.65072081943829    1.23621677929561
O           1.77896275620917   -2.65385750065525   -0.48280474321642
H           0.38792323614937   -2.26145070514423   -1.28233536199963
H           2.51748431967430   -2.22358394197301   -0.91868276878571
H           1.78842952914454   -2.30049483290151    0.43492171438074
O           0.46387108739817    0.52717335948625   -2.32245961435120
H          -0.57002905645824    1.47293430812121   -1.54497244190943
H           0.92773782243224    0.38693662570897   -1.47460917335567
H           0.06256880080650   -0.33524419907924   -2.50056654848283
N          -0.46933329598188    2.26454951476551    1.64183091623440
H          -0.59485773050158    2.16467691555775    0.61333220798310
H           0.51078854706951    1.71092088615340    1.99150643183991
H          -0.46420598006481    3.24223343176993    1.91343581097046
H          -1.21973760414577    1.76002669711891    2.10867452012793
