    26
        -50.45987904  Gyration_radius:  2.52548862126 Dipole_moment: 7.500
 S           0.43289915444556    1.28265989790075   -0.71463828213282
O           0.52639640653901   -0.15889496444485   -1.00762682863462
O           1.11409910702685    1.55398443834607    0.56359951971123
O           0.81737783605344    2.13343789215194   -1.78799659508750
O          -1.09864523753337    1.55491631273462   -0.41074999544566
O          -3.14727726744597   -0.37831665366976   -1.78921641401006
H          -3.70677570893004    0.39763291066427   -1.73212817927781
O           2.11110548206281   -1.70014041601704    2.44792848857171
H           2.84143593367460   -1.66496522097827    3.06731643167484
O          -1.59921584093801   -0.97260974852238    0.29603548387468
H          -1.47994685409609    0.71355194040065   -0.08575758260741
H          -2.33146594089078   -1.01333867662062   -0.35581377733873
H          -0.78515540163888   -1.02524053161694   -0.24526540746412
O           2.87091153579054   -0.51585088385024    0.22499488089036
H           2.77588311564953    0.41747206374799    0.45796132042870
H           2.47301678947633   -1.38929321651002    1.57489194566445
H           2.13605614792827   -0.65593583203239   -0.39815159522830
O          -0.94777181227337    0.43326122728852   -3.16643712021086
H          -2.42124751277169   -0.13595304388288   -2.40315434996834
H          -0.63879208295335    1.34603716422342   -3.16050687501933
H          -0.30982045793359   -0.02219622867896   -2.59573948673499
N           0.05477739199815   -0.04161422739301    2.27006436673144
H           0.81110603989097   -0.75177849739715    2.47848748886426
H           0.50196353744168    0.69291047065782    1.59603206906315
H          -0.71568386723032   -0.50186838924065    1.75917945569784
H          -0.28523048331281    0.40213218274660    3.11669102802540
