    26
        -50.45987914  Gyration_radius:  2.52573959852 Dipole_moment: 7.500
 S          -0.80755752918439    1.26644766463694    0.29629509704005
O           0.47955641886037    1.74841866763116    0.82799201963851
O          -0.63148562807906    1.32777688924425   -1.27781834594562
O          -0.95187710526899   -0.16395019243367    0.62146693501662
O          -1.93168426111598    2.06943193120259    0.63584316321941
O          -1.94360737147505   -1.01000428568438   -2.90767815742763
H          -2.00063745841194   -0.32894241566330   -3.57947174461404
O           2.73495771547191   -1.13740436416674    2.13853890352741
H           3.39372315001485   -0.93711177569636    2.80495471693906
O          -3.24858781309848    0.00739398415305   -0.75008938585676
H          -2.53011739346100   -0.71277088354328   -2.17938242429997
H          -2.59667122356554   -0.29436477739820   -0.09891484571364
H          -3.31124709736568    0.95373977961128   -0.57935328771858
O           0.46020251862482   -0.04943456444973    2.88850034015349
H           0.59341440567241    0.87430661635667    2.63644975725662
H          -0.19348543775075   -0.35606073615746    2.23548015591262
H           1.86078534058037   -0.85211121000263    2.51839098027025
O           0.28581933155268   -1.17537979304786   -1.45777222588538
H          -0.25128065672994    0.46977784659025   -1.55724912154247
H          -0.19439359495453   -1.14920119786375   -0.60495093595239
H          -0.40448777304908   -1.38502731205954   -2.12265545463225
N           2.26245359085084    0.16479616553356   -0.11784884302067
H           1.75035484501624   -0.45064264105018   -0.77007530389204
H           1.55007970143182    0.89733404254536    0.26865144625480
H           2.58807792936906   -0.40036486036800    0.71549344273878
H           3.03769536606074    0.62334739206820   -0.58479689146595
