    26
        -50.47393285  Gyration_radius:  2.40347964801 Dipole_moment: 4.919
 S           1.20735996019834   -1.13777254582527   -0.18324783614609
O           1.83600123185702   -2.50296743903571    0.20958864811054
O           2.14792352447074   -0.44945291375141   -1.03419440544532
O          -0.06445714294437   -1.40447500074852   -0.85377896032332
O           0.96549246907658   -0.40396805470271    1.07246815162552
O          -1.54066409102139   -0.94253224126000    1.24558206510287
H          -0.60840165406625   -0.64322205078026    1.39695355481321
H          -1.44540867802374   -1.35573409329891    0.36794426714737
O           0.57232230627076    2.19808435092276    0.71268108402402
H           0.94981188640244    2.32924153316165   -0.17481626568608
H           0.85808499581104    1.29407693326719    0.96962095102679
O           1.38054365944817    1.86015704496081   -1.88415159971405
H           1.72294394258915    0.97231129363393   -1.59058000123729
H           2.05763867679803    2.22362961533834   -2.45676053200241
O          -1.05831076461160    0.64394906808841   -2.18762288741874
H          -0.71839751490813   -0.21593232713323   -1.84844381833187
H          -1.69806052485184    1.20187951223343   -0.88255000877729
H          -0.25878560501334    1.18089940647831   -2.32602804517765
O           0.10753878669042   -3.02928240606321    2.16615581973711
H           0.56109799082948   -2.57793208744255    2.88257424348214
H          -0.69533764796926   -2.51311241218151    1.98512931067553
H           1.21750739493447   -2.85081041390051    0.88549020661082
N          -1.87697675401227    1.48588823773333    0.13968673439080
H          -2.66689934815339    2.11194200495128    0.24131133126223
H          -0.95420513860285    1.92589996658426    0.46321850904062
H          -1.99836195121546    0.59923500874444    0.68376947316355
