    26
        -50.45201953  Gyration_radius:  2.50216424393 Dipole_moment: 2.539
 S           0.04686454933753    1.38156977327712   -0.29617995189632
O           0.08260550446785    2.70409408383588   -1.10818750458599
O          -1.37412660031893    1.03751657577330   -0.16785649542568
O           0.75503973684944    0.35599619379285   -1.05927488417456
O           0.66462728854797    1.59680612246083    1.00220517307213
O          -3.16674653072000   -1.45163242703132   -0.90873181654242
H          -3.34621778329969   -0.60284923812526   -1.32235591439114
O          -0.19919367568443   -2.27294392859182    1.51651664306375
H          -0.08549212894748   -2.77460595650812    2.32520824290872
O           1.83157568677463   -0.72892921730782    1.12308233294980
H           1.80241482647894   -0.66352582130540    0.15462817545367
H           1.49291193190864    0.15591021717158    1.38122793256560
H           0.62684610711916   -1.70458512237131    1.41523759148040
O          -2.24238320184536   -0.72014267812513    1.30271310267682
H          -1.83687764324318    0.13512664595625    0.79976367628810
H          -2.77428994327332   -1.12089102677066    0.49028104917730
H          -1.45736848663198   -1.34863116055156    1.45610208818946
O          -0.62814337377089   -1.90410103492972   -1.34811045085339
H          -0.14156699138285   -1.05157795422818   -1.36409924926900
H          -0.33123800333588   -2.36574928957630   -0.55607021844522
H          -2.25882452207672   -1.71311765995691   -1.22680835094950
N           2.66988398045821    2.65991267882792   -0.73829360575379
H           2.92201319811617    1.81394925439796   -1.23364490613156
H           2.42048781700397    2.39880491796619    0.21084794066517
H           3.47298799986169    3.27527041642868   -0.71409064916565
H           1.05421025759622    2.90832563551487   -1.13410997091041
