    26
        -50.45201974  Gyration_radius:  2.50225855202 Dipole_moment: 2.541
 S           1.16451973123024    0.78058304228840    0.17830832123752
O           2.09260152827945    2.01849463113686    0.30416529801838
O           1.74733233097870   -0.33426427563431    0.90760703642822
O          -0.14882248073286    1.13638175503159    0.71122188984727
O           1.07744626867166    0.49879664612842   -1.25927157495454
O          -1.53320699191651   -2.24405244618455   -0.34287510052136
H          -1.72118126280456   -3.17688447121814   -0.22842053040743
O          -1.25844571879938    0.23553912686796   -3.36453496986410
H          -0.59828655298522    0.92494598306692   -3.47744077832350
O          -0.51028473466576   -1.26301229258273    1.81394013827040
H           0.44382936070372   -1.18672325160323    1.59340628720308
H          -0.79561607546974   -0.33911714858084    1.72608858054058
H          -1.15085242358276   -1.92117100064000    0.53208336470989
O           0.09001741601668   -1.53303625287400   -2.21068371107883
H          -0.53780078353294   -1.88406770169697   -1.49105191044678
H          -0.50296875690597   -0.93552262115089   -2.83987972814221
H           0.64882558131358   -0.74427600320324   -1.74988294226513
O          -2.16302516145699    0.54615237464164   -0.93048570111553
H          -1.44306067318564    0.88390521757902   -0.35459286499406
H          -1.73168075642736    0.46015368249539   -2.51613508865407
H          -2.34493731032416   -0.35156685184498   -0.63115473455874
N           1.85335138558772    1.72293681617820    2.89061409004049
H           0.86253432745394    1.88604878704388    3.01783962804840
H           2.33316387692585    1.94091939924153    3.75459663704442
H           1.97918071936855    0.73781316911134    2.67834958205184
H           2.14736713628652    2.14102368624108    1.28818878183068
