    26
        -50.45201922  Gyration_radius:  2.50124285122 Dipole_moment: 2.539
 S          -0.57816213797686    1.22137259988181    0.41828967993783
O           0.83237062896029    1.51114703170133    0.13457245014615
O          -1.37701114235326    1.21140386481957   -0.79634554949030
O          -0.70519556487093   -0.03764491490957    1.14944977909331
O          -1.06107566990019    2.37158436756663    1.34215009298716
O           3.56388148379562   -0.02071101602374    0.49116804108879
H           3.42161921016602    0.80712495189473    0.95847290248453
O           0.93942407883802   -1.91193122562024   -1.72123703287177
H           0.94926222829484   -2.38200728441640   -2.55641206461460
O           2.16823331216176    0.34527343384977   -1.55734154884136
H           1.50819782878817    0.92899661918656   -0.94759351380054
H           2.90956602310546    0.17146496477430   -0.83305608665343
H           1.70073425354491   -0.54773271705376   -1.69411222000295
O          -1.48606312227273   -1.38158159032737   -1.01553857904980
H          -0.02952081198528   -1.74791505576590   -1.49785823379285
H          -1.37301085018805   -1.35203345162830   -0.05158591727000
H          -1.57529448573595   -0.42598289129173   -1.22360313893318
O           1.51140871076913   -1.51768885239150    1.11388647525766
H           1.34092718334729   -2.02677903426445    0.31361666878607
H           2.88998037146175   -0.65328622385328    0.86498052246672
H           0.72179201573913   -0.94992617775345    1.24806092110061
N          -3.41940737997870    1.25266438226349    1.20710071323147
H          -3.20376142695932    1.16423149891431    0.21877142121588
H          -2.01918816697507    2.14652725508938    1.47422947143117
H          -4.40335857130035    1.46298834765415    1.31553147556360
H          -3.22634798845958    0.36044112769821    1.64440326054527
