    26
        -50.45201972  Gyration_radius:  2.50212764263 Dipole_moment: 2.542
 S          -0.84366860828083    0.99706307567332   -0.53866302823444
O          -1.23988755286132    0.84107282653137    0.86571007783501
O          -1.37459057706105    2.39104883210006   -0.96835603335957
O           0.61234763310651    1.00301984975471   -0.66264406549349
O          -1.44244614729954   -0.02647799594101   -1.38026605162288
O           0.26445172101566    0.27396294155336    3.57866533413607
H          -0.21670198843572    1.09869010925909    3.46845571118785
O           0.78956023843820   -2.48391292922403    0.84409731569189
H           0.77466172108469   -3.44178217401287    0.81476617416262
O           0.69042709410682   -1.51129630748862   -1.54462308040200
H           0.76153386519247   -2.16935585977985   -0.11301432579422
H          -0.23980911356697   -1.20554623985686   -1.62194139059307
H           1.15145178923708   -0.66926617336744   -1.39952510697059
O           1.87318002925769    0.14155263192653    1.52121151793632
H           1.44981754925067    0.57351877431172    0.74775284304198
H           0.99976634984201    0.30591476276937    2.90595348738077
H           1.91217186929420   -0.79859174606239    1.31335589480582
O          -1.07988088257685   -1.25779658910986    2.12163806889396
H          -0.56598372852577   -0.74763386906383    2.88366251384792
H          -1.27907153980056   -0.41332158080556    1.49418769062072
H          -0.37601728917932   -1.80575523436907    1.63244173145363
N          -0.48528962242050    1.80534061588376   -3.35609646808002
H           0.51001578685122    1.73414064967518   -3.18611156809187
H          -0.89691859989178    0.89683057461987   -3.16505370657486
H          -1.11533514891895    2.42870051985959   -1.92625934383059
H          -0.63378485737125    2.03988054525849   -4.32934421202504
