    26
        -50.46728884  Gyration_radius:  2.49360955727 Dipole_moment: 4.054
 S          -1.91171193909818    0.12785086369531    0.74555348690036
O          -3.39593549724564   -0.26210792881227    1.15472559605285
O          -1.60156282678065    1.33136086251302    1.48120661396845
O          -1.07236809474182   -0.99864439704603    1.16480367763207
O          -1.91253733212282    0.27583109045406   -0.69394940484526
O           1.32678154082039    1.84043729533886   -0.86633862816964
H           1.99183559797511    2.52092775048980   -0.97758326960207
O           2.67627217862261   -1.90999181519804    0.80321036357301
H           2.83824212006557   -2.37813031897849    1.62332479424107
O          -1.05895174489663    2.87667640025953   -0.56700715923999
H          -1.24465086045939    2.50636670200515    0.32167695744772
H           0.45386930402438    2.31283230714600   -0.76531035435765
H          -1.58797343542897    2.31913912651429   -1.14908708553072
O           1.36371566717586    0.27942121224025    1.40434579414056
H           1.38695212234911    0.89339181913813    0.64840416734234
H           0.44182894093631   -0.00778295616220    1.49393370874756
H           2.31320088191367   -1.02135014478804    1.06714302583385
O           0.18731987931671   -0.22821871363415   -2.25510581913530
H          -0.68436319871666   -0.02155294298917   -1.85888270005582
H           0.77120278459176    0.48023544684661   -1.93145682550263
H          -3.42567427193981    0.03607602233831    2.05797758569914
N           0.43307312917374   -2.22833634552038   -0.59110888718715
H           1.37753606598457   -2.25828086394990   -0.12714129072312
H           0.44247397702944   -1.50757720910951   -1.38233961030278
H           0.14046188161594   -3.14046511787717   -0.92132413551338
H          -0.24903686029684   -1.83810814479771    0.12032941851150
