    26
        -50.44889730  Gyration_radius:  2.49167854948 Dipole_moment: 7.854
 S          -0.72898871696015    1.20691856263748    1.53754284471068
O          -1.27135771169970    1.93969008183513    2.62853197818974
O          -1.55560492911285    1.07297845107107    0.35759265043701
O           0.62217674191456    1.71928680708284    1.11713887897502
O          -0.41326388097059   -0.26113094656867    2.04973228968672
O           2.37926796231295   -0.98565009938500   -0.68029579379769
H           3.07367056991219   -1.11661435249138   -1.32645522707300
O          -1.39797211377549   -0.75800633964467   -2.22115159745602
H          -1.66881840065014   -1.36780639460354   -2.90882284413522
O          -3.55703422468024    0.37106396650033   -1.15870897799336
H          -3.86910134118644    1.19848373209232   -1.52970557279298
H          -2.22572607909185   -0.34771775251445   -1.86836814566973
H          -2.95032046088194    0.62687654601860   -0.43081851013859
O          -0.23105438266681   -1.83563185556973   -0.00512950723960
H           0.69951243821243   -1.78958681499826   -0.26542923254259
H          -0.45627974166173   -0.87005135975815    1.26080889654127
H          -0.73482997768665   -1.46626983164478   -0.75870815564978
O           0.78172831039079    0.88923952223022   -1.43870481590105
H           0.57190531469931    1.33596091219977   -0.59501009454126
H           1.80127971654290   -0.23669673786797   -1.03736683460350
H          -0.04845817935463    0.49433885174904   -1.74587074335458
N           2.28304881499654    0.01315148692428    1.82788696604162
H           2.50761568320114   -0.46554356962062    0.93058719261415
H           3.11354823875881    0.33716375317481    2.30928566891081
H           1.56514397726198    0.88457796911176    1.53481180944370
H           1.70991238217741   -0.58902460796243    2.41662689733748
