    26
        -50.44928246  Gyration_radius:  2.5370844709 Dipole_moment: 6.265
 S          -0.82464485478524    0.28687746365244    1.93709825010699
O           0.02100429036294    1.48909325515554    1.43183173102215
O          -1.14205674045165    0.49192783847870    3.30136903918324
O          -1.90057919991854    0.06715348468694    1.00692694924182
O           0.15950966480137   -0.91236291246929    1.82848563931837
O          -1.54724215163451   -0.42027548217637   -2.21494356388157
H          -1.75051610309662   -0.36909120461791   -3.15002293174498
O           2.37847281484599   -0.03616161932859   -1.10379014213618
H           3.20821366908746   -0.06348824926955   -1.58111243915311
O          -3.78428672497777   -0.29065983080555   -0.80691624534865
H          -3.23666172273852   -0.01393634964320   -0.04728596127564
H          -2.41145759863845   -0.37117331253091   -1.73441145423816
H          -4.18821949498432   -1.11966442483995   -0.54289127540711
O           0.27875015715172   -1.72399156975273   -0.59723226730894
H           0.14661918613086   -1.27691905828087    0.88481017844312
H          -0.44640218359434   -1.37613653723539   -1.14348505007037
H           1.08456630959814   -1.26312554315368   -0.89218878924697
O           0.08955588337550    1.47499667245674   -1.11338623733534
H          -0.02002201900453    1.52937099131576    0.41631003686550
H           0.94850921132836    1.04079847471040   -1.26182611821740
H          -0.58586832936546    0.87623842134328   -1.48728565434201
N           2.77407817624418    0.41974199843786    1.48085887550981
H           2.59889307604917    0.13763029551847   -0.14075829741510
H           2.10242796183232    1.16161212522344    1.65733905415006
H           2.40250763625382   -0.40636126464821    1.93828306526133
H           3.64484908615385    0.66790630778105    1.93422361804167
