    26
        -50.46954179  Gyration_radius:  2.3986458313 Dipole_moment: 4.982
 S           1.23742633138490   -0.96025244942250   -0.27785663693149
O           0.48031864748296   -0.84883725701785    0.97099246727191
O           0.44690739546992   -0.40781367189636   -1.39790982500225
O           2.48034068893151   -0.02516456264795   -0.15143386101753
O           1.66334481082237   -2.30609405618855   -0.54595411926900
O          -1.86573555074054    0.38620042215701    1.06480887828934
H          -1.59883438473978    1.29493445030738    0.85534573441035
H          -1.01637377379096   -0.08221019974238    1.21004556266415
O           1.01209789104541    2.13944956043259   -1.62549301689320
H           1.95934194479834    2.17207454017047   -1.47190806505262
H           0.79204155037725    1.18115493862053   -1.66670529114357
O          -0.45557650838123    2.73611089108059    0.48300607686613
H           0.03636323981701    2.57197369382653   -0.36170289832162
H          -0.66912720699349    3.66992090404400    0.49769763850753
O          -0.64763918874492   -3.34708208693163    0.18244279262040
H          -1.61415220466216   -2.22134434107742   -0.49931199536737
H           0.24871234305533   -3.11865615271507   -0.15761226564950
H          -0.59418839117449   -3.17034391207657    1.12559144192209
O           1.57347996121912    1.41355062330864    1.80919476382440
H           2.27780855122625    0.60498572673150    0.59458666110101
H           0.88788375101406    2.01733136024887    1.46838735058674
H           1.10871550904070    0.57851573966038    1.97846825544624
N          -1.91775267755670   -1.30822895921141   -0.93844639169158
H          -1.00740021605450   -0.91479136469747   -1.32877435532458
H          -2.18231163239641   -0.62563718901374   -0.17406290655705
H          -2.63569088043766   -1.42974664785388   -1.64339597531336
