    26
        -50.45480867  Gyration_radius:  2.46972834618 Dipole_moment: 9.380
 S           1.90144102005386   -0.95780814097577    0.33214512017933
O           3.07086568048613   -1.73111288563322    0.55673436415740
O           2.17809032941365    0.46929458547525   -0.01130827525917
O           1.18568889197682   -1.53737412659654   -0.95909854873648
O           0.89438043890725   -0.96559049195602    1.38558851549218
O          -2.02920671852251   -0.03109506857264    1.61236345215675
H          -2.76680320135927    0.21252760738669    2.17287768965010
O          -0.72037656285346    1.86002116813679   -1.85231565464538
H          -0.99760323796217    2.51458625515940   -2.49398794024685
O          -1.05497752060849   -2.35891461301579    2.35335433446281
H          -1.18594627881919   -3.07909501293434    1.73331699996398
H          -0.18212200139016   -1.96383771392938    2.11888428268623
H          -1.69772922834877   -0.90443573144986    1.95646243148637
O           1.56519750073740    0.81469697283435   -2.53110182599504
H           1.96269188482109    0.74411187904543   -1.63050329049241
H           1.48086817323354   -0.09775818883505   -2.82314550407034
H           0.15627590307634    1.50023833904161   -2.18058018864747
O          -1.33266217162321   -0.72021933368097   -0.99122580546102
H          -1.30307598956978    0.14420841167280   -1.42771521321735
H           0.23072903578834   -1.28997094902369   -0.92782265015644
H          -1.69242058149273   -0.56197442749771   -0.10516756243574
N           0.04936023066455    1.60858706608153    0.75886099632942
H          -0.36773585207281    1.90570745810929   -0.14259076585535
H          -0.56763578184392    0.91045340059301    1.21773424373518
H           1.00830818920116    1.11528208095954    0.50633166066106
H           0.21439784810614    2.39947143960715    1.37190914425502
