    26
        -50.45262171  Gyration_radius:  2.5248329112 Dipole_moment: 4.450
 S           0.57618264673412   -0.81400966772290    1.08412688455477
O           1.97671965306757   -1.15619804907761    1.00301142989178
O           0.34781877585760    0.52766461072925    1.62937142393081
O          -0.11683246383427   -0.95816597857524   -0.19354405297894
O          -0.12443261773906   -1.79058900998406    2.09172301292175
O          -2.69477869455962   -0.39139049285742   -0.16414966630674
H          -1.86437670875480   -0.89111616813444   -0.00939576515227
O          -0.38913363608327    2.58204507028487   -1.36492821922032
H          -0.18202570384563    3.51716596383169   -1.39748935683387
O          -1.63286273174437    1.69138981482657    0.71913159399381
H          -2.21451435226493    0.86362590098647    0.38496047125035
H          -0.80555166544713    1.22421403546546    1.19889699327731
H          -1.22760502337062    2.11157119578001   -0.11123594176945
O          -1.43185083589773    0.14931546532186   -2.45965293865672
H          -0.79632483370207   -0.36984165824191   -1.94761710535446
H          -2.67222803077018   -0.23500098667147   -1.13107005284334
H          -1.13793067660089    1.06531721365538   -2.39409301887071
O           1.64298545116704   -3.68706705828312    1.58325766599333
H           2.20968186432829   -3.94319445230321    2.31450472183171
H           0.32600297859363   -2.65498867121710    1.98481666045168
H           2.00782524783384   -2.84858278285155    1.23058095227759
N           1.75366181500246    1.17737236386594   -0.82120599400147
H           0.48196698147506    2.08845608756809   -1.20856942106147
H           1.36383265367694    0.23870803045761   -0.82967388933030
H           2.62130613867243    1.15437151149368   -1.34386114419899
H           1.98246379820242    1.34892769159791    0.15210474620310
