    26
        -50.45262165  Gyration_radius:  2.52487379843 Dipole_moment: 4.452
 S           1.23033082251085   -0.42277141358898    0.69041079609702
O          -0.21843240745785   -0.39646138556290    0.87431160068806
O           1.91638649216467    0.54901620685650    1.50891517268320
O           1.71236101873221   -1.85803045998845    1.09976887360729
O           1.55694306746474   -0.30077506433758   -0.73367241735525
O          -1.38191215112301    1.44242390420127   -2.16591249800488
H          -1.30627885437403    2.00875290529400   -2.93529622354754
O          -1.58165589419996   -2.15452938152402   -0.54693273719643
H          -1.00130415508688   -1.80100034689725    0.16114920089433
O          -2.84514435830725    0.15419142886409   -0.06787654926136
H          -2.38639712642829   -1.60275152100875   -0.45783548859268
H          -2.06784745472937    0.17742536299072    0.50738018457383
H          -2.63948037107962    0.73124718563194   -0.81252621979274
O          -0.28324140206724   -0.89545010855134   -2.27169174742505
H           0.56930029907745   -0.68739378917155   -1.66914459584982
H          -0.87060242366873   -1.52662529202093   -1.64591556102080
H          -0.76989349432120   -0.00609459836625   -2.32060279491674
O           2.24929101187177   -1.04840718900687    3.55629138319967
H           1.87192895468315   -1.82201174200372    2.06663480010634
H           3.17270984293200   -1.07476370001323    3.81726372268721
H           2.14017479230504   -0.24599285261621    3.00425406285570
N           0.23809297824225    2.23802306593473   -0.26777033586299
H           1.18059307576474    2.01388246099645   -0.56866805202465
H          -0.77850008627996    1.82950516806549   -1.44970890323245
H           0.02977475422145    1.55020043272206    0.45100354399240
H           0.26280305916156    3.14839072312494    0.17617078270260
