    26
        -50.45262169  Gyration_radius:  2.52477746354 Dipole_moment: 4.450
 S          -0.97503392252441    0.29025411333304    1.06517694260987
O          -2.43739030667057    0.84854904938737    0.96647885985180
O          -1.08884127483568   -1.13849502774778    0.75629696222325
O          -0.19586700732892    0.96430830514944    0.02978907627730
O          -0.47159592380991    0.53863696700153    2.39558727983564
O          -1.04165879412358    0.61160905699350   -2.44582959882256
H          -1.01544982519091    0.95362784590712   -1.52632425984506
O           1.87428448987132   -1.82138772636900   -1.36061340033215
H           2.29270765511726   -2.68334082332728   -1.37870630066496
O          -0.69660430659419   -1.71941047925504   -1.61311793778124
H          -0.91062410484898   -0.78847588241369   -2.08492260624224
H           0.31400798709397   -1.81391694761355   -1.60918298927474
H          -0.93966924437923   -1.53242972801910   -0.59377587013992
O          -1.93774458272615    2.66614341584575    2.81718835186491
H          -2.45559326413844    1.65360670079257    1.52605704032869
H          -2.42956042435586    2.58026672270100    3.63706202761636
H          -1.21490361324329    2.00551714782054    2.85723760218497
O           1.60260757980919    0.91168008564071   -2.17297820288761
H          -0.15040529082320    0.83923209942667   -2.78308737833790
H           1.23959174151038    1.14725231542672   -1.30789420471976
H           1.96403070744281    0.02321216123486   -2.07432994138913
N           1.78036204209371   -0.88868584143090    1.08514239269246
H           1.09026692567264   -1.43800340414969    1.58627502616107
H           2.56080866099272   -0.72657446847239    1.71053050395765
H           1.91722562524510   -1.48855153759175   -0.40444188479977
H           1.32504849074190    0.00537588973252    0.92238251962667
