    26
        -50.47393307  Gyration_radius:  2.4033349662 Dipole_moment: 4.921
 S          -0.44793848147932    0.94040980241795    1.30467909082425
O          -1.88832787450060    0.90806845084190    1.22197566385557
O           0.12408306136057   -0.41257770070382    1.43324483226530
O           0.16344678943341    1.63076710031668    0.16999373954784
O          -0.06550555674803    1.71267692300413    2.59708946701381
O          -2.84860001812404   -0.29971916887482   -0.84324364814784
H          -3.80510114408489   -0.24325139414297   -0.82279461878523
H          -2.53186318047291    0.18279534091419   -0.03181246282367
O          -0.93885759523813   -2.17332745646199   -0.24699153230633
H          -0.59690482249412   -1.65188558097514    0.51208187707206
H          -1.76894796031065   -1.72853891230599   -0.49274370185313
O           2.19439933260317    0.00641848118339   -0.02929016654557
H           1.50448709885853   -0.36170763107603    0.57924671256963
H           1.80438698342655    0.87903676456687   -0.21967773413962
O          -0.80589883965198    0.94225669981769   -2.18573984242127
H          -0.47266553670483    1.37457670840418   -1.36599134950122
H           0.14696552739533   -0.28784593401242   -2.23626996005404
H          -1.67218180974433    0.57927694687653   -1.93147385981529
O           2.48529657973156    0.94726446569888    2.60754233177507
H           0.90274835694439    1.57690965443170    2.66369795019308
H           2.38305034199475    0.12126501422825    3.08716682229294
H           2.71523745870060    0.70473764946698    1.69536003514549
N           0.73660306746848   -1.14823978839036   -1.97219320478778
H           0.09289662265375   -1.73506803521944   -1.34668445132745
H           1.51894654332769   -0.80493944969291   -1.36648645282863
H           1.07024503567320   -1.65935894026938   -2.78068553720271
