    26
        -50.45262173  Gyration_radius:  2.52478442095 Dipole_moment: 4.450
 S          -0.54613432575393   -0.51863742045738    1.26614667903765
O          -0.48474038063030    0.94091164716607    1.39076777313648
O          -2.01881939609350   -0.90079766290484    1.64668475259132
O          -0.35626423799557   -0.90890872510634   -0.12853865790979
O           0.35726041801089   -1.19737205369886    2.16524928740016
O          -1.97432720042489    0.24342310349568   -1.86671461402979
H          -1.67514453124796   -0.36140683774044   -1.15400340343507
O           1.55172959799156    1.98902912046059   -1.52195977422119
H           2.09318477669579    2.77942409732860   -1.49956976700303
O           0.46793948240397   -0.33869499006641   -2.79068304949702
H          -1.33615478648364    0.05696888187096   -2.58629820466009
H           1.00663800845737    0.44592989720275   -2.63589888147504
H           0.41365819208280   -0.79458154422721   -1.93932181075628
O          -0.89497954103660    2.17742697773603   -0.70905912153553
H           0.04222665635459    2.18367829481139   -1.09896907031786
H          -1.44696830927780    1.45317263735755   -1.26231468041779
H          -0.77367758167804    1.71149446451164    0.24009917228948
O          -1.23187173482029   -3.22751602126063    2.61972327679149
H          -0.43214264882127   -2.67020920226139    2.51811199001605
H          -1.35547873108453   -3.35503779362831    3.56307648593373
H          -1.98444094329583   -1.83323160131048    1.94814546822472
N           2.19248990137737    0.37184448118511    0.43595240080295
H           3.10163840530177   -0.03350837375988    0.62475186128543
H           1.88090886825167    1.38033350224573   -0.78155655522097
H           1.54469697902781   -0.39192537217726    0.26232413752472
H           1.85877307267641    0.79819049322391    1.29385430544219
