    26
        -50.45262173  Gyration_radius:  2.52481676841 Dipole_moment: 4.449
 S          -0.87629608144785   -0.92659117680796    0.73730726140865
O          -1.54327434725916   -0.62365768083299   -0.53271301070121
O          -0.46682272388293   -2.30745282757023    0.84092413067243
O           0.22389970096301    0.00833534824822    0.95868654261476
O          -1.94878946807352   -0.63374674219165    1.84352909291007
O           1.07771059239215    1.08393476436852   -2.51873683994889
H           1.09473344081090    1.03675032862037   -3.47575178073413
O          -0.40908074182076    2.56753269651498    0.82624974663819
H          -0.34444689398683    1.65655504837697    1.18567934997589
O          -1.16766232782522    1.66768850208652   -1.37839001847432
H          -0.29693074143365    1.53189108963977   -1.88214207076979
H          -1.42273897537145    0.69096490376953   -1.04108397062776
H          -0.91771334469321    2.17492845459210   -0.47536360744276
O          -0.94205431602848   -2.51009304257614    3.40732260717574
H          -0.57257883492520   -2.65104034792283    2.51059010936754
H          -1.68959383029588   -1.17593526500114    2.61833856353307
H          -1.51199641068711   -3.26126284887031    3.58717738567662
O           2.06894773464599    1.96017048832483    0.02159296766971
H           0.52689944182375    2.79090088354168    0.64202741854001
H           1.74375985838253    1.15232759838423    0.44260351448227
H           2.01136067113524    1.80421393436417   -0.92822032160216
N           1.10964694677660   -1.31716773834157   -1.47309230212999
H           1.09357899711211   -1.08614425692037   -0.48339349377991
H           1.14881929075292    0.13449234150672   -2.17165433375438
H           1.80976596573250   -2.03677072427893   -1.60914769012247
H           0.20085640719829   -1.73082375104091   -1.65233925059763
