    26
        -50.45771243  Gyration_radius:  2.41521756732 Dipole_moment: 7.105
 S          -0.37489030934600    1.23354347617425    1.37394959988900
O           0.75716553410653    2.12606658256153    1.64433911308868
O          -1.67692976980769    2.05072609627822    1.66315828196125
O          -0.38090527419434    0.90278621308530   -0.04584403212927
O          -0.37748231559179    0.05175467369312    2.21674110158188
O          -1.86147936861825   -1.92142889112897   -0.92089087668211
H          -2.40857977161356   -2.51805942932002   -1.43310984439254
O           2.32313141683352   -0.80709428935106   -0.73615862885398
H           3.12207470213368   -1.21480978927167   -0.39815394462856
O          -2.85080153463840   -0.29144061549035    1.19454157969271
H          -2.63473808703617   -0.76734435539821    0.37624384760533
H          -2.12225536764102   -0.49788068549265    1.79833754697900
H          -2.37778870739278    1.39532271314136    1.46694432614247
O           0.46246918542076   -1.90533803374621    0.66171359049526
H           0.20680918017974   -1.23039139759115    1.32722503312435
H          -0.34730173717769   -2.06567871584262    0.15093716861783
H           1.57046550817875   -1.22556471209669   -0.20256810454194
O          -0.15130918878802   -0.39375613831323   -2.32206507291491
H          -1.34623076854319   -1.37847708939604   -1.56058222613437
H          -0.29284930698693    0.18033942850039   -1.54305777488637
H           0.71878696818087   -0.78230629284034   -2.18553453850014
N           2.04265202781515    1.82832456118134   -0.52439992812475
H           2.20940546869424    0.77948922292308   -0.59091740457123
H           1.33856658311186    2.06846475113547   -1.21973269707213
H           1.55782768425805    2.01524273825756    0.45556054140528
H           2.89418725846160    2.36750999834731   -0.64667663714673
