    26
        -50.47393289  Gyration_radius:  2.40350327685 Dipole_moment: 4.919
 S          -1.32768837335712    0.44597585070018    0.90794252760055
O          -0.65586049836641    1.34406848122113   -0.04912023790225
O          -1.96587977132796    1.34990713311636    1.99821768568944
O          -2.38971074527065   -0.30562261282322    0.28357391162756
O          -0.33939766619802   -0.41365338340885    1.55786978102901
O          -0.09544840973270    0.18529690326386   -2.37242798386589
H          -0.69458115247963   -0.58156647207100   -2.35460864054413
H          -0.39427770757199    0.74733376567593   -1.62428259267931
O           1.71846781083398    1.03981437704540    0.88298821132779
H           1.33245854753243    0.36535673946174    1.47113191749751
H           0.90686677584124    1.32445707262789    0.39080849915280
O          -1.64722041067819   -1.92889217991802   -1.57635235724750
H          -2.41496683415874   -2.39654401074587   -1.90855297527913
H          -1.98758131680968   -1.32338150671899   -0.86275668862326
O           0.18148386799503    2.88625634126648    2.34853062907033
H           0.00593855181917    3.53707614058681    1.66421022621723
H          -1.22243735749375    1.92214392421523    2.28123561895919
H           0.95085392293780    2.37547896281834    2.04687564544994
O           0.45085601790315   -2.46960880536135    0.10498607628854
H           0.12929268694303   -1.82990822228147    0.78132104524422
H          -0.28988717905524   -2.55133584143017   -0.52055091997508
H           1.49647641171677   -1.57409409933601   -0.62270817894422
N           1.99138750477221   -0.74995738018096   -1.10565515640542
H           2.16421174596595   -0.02617586200484   -0.36860858964803
H           1.25498499643730   -0.34577473834764   -1.77225652734727
H           2.84165860185955   -1.02665058713887   -1.58181090669398
