    26
        -50.45262168  Gyration_radius:  2.52480256012 Dipole_moment: 4.449
 S           0.61997161772325   -1.11251268949665    0.73980576398523
O          -0.14171073414997   -2.32923332749678    0.89696891856766
O           1.29847965831143   -1.02837747431410   -0.55714885448010
O          -0.17970479174305    0.08916816975829    0.96368835718851
O           1.77026062707332   -1.09573830225500    1.80573962335592
O          -0.83441211470966    1.28018182181143   -2.51886118257967
H          -0.89755718304158    1.21948568208768   -3.47314091264687
O           1.11253780668724    2.37963403007703    0.73666730074749
H           0.81841118201703    1.52785412508823    1.12543180090034
O           0.35361180758646   -2.59770510545692    3.45372766877939
H           1.40293315124683   -1.53178453262082    2.60356714192714
H          -0.07232036538257   -2.65302895274244    2.57284372357165
H           0.70701216992488   -3.47064806164321    3.63959563105460
O           1.52388463085723    1.26080040005761   -1.45989304973909
H           1.51841902772264    0.25881858994016   -1.10067744247738
H           0.63172425524059    1.35410053122221   -1.93491615318822
H           1.45110724015030    1.83616580658090   -0.56600684112919
O          -1.46427078825281    2.44511687170304    0.02052832181959
H           0.26502130370491    2.84272343550006    0.57188348628810
H          -1.48386449790779    2.25898655356684   -0.92540720110417
H          -1.35335584340901    1.58868035259024    0.45624662487564
N          -1.47440122729670   -1.00017994548384   -1.40086857197336
H          -1.14586511554812    0.39262054833896   -2.14165780751028
H          -2.34648315009722   -1.50705276973610   -1.49595626825686
H          -0.71697172033141   -1.64717246974341   -1.59279447288226
H          -1.36245692637968   -0.76090327733425   -0.41936560509562
