    26
        -50.45556559  Gyration_radius:  2.424805203 Dipole_moment: 6.869
 S          -0.61954494720572    1.84221244878615    0.28732500692668
O           0.43819094002012    2.74159235200403    0.72821858118729
O          -0.44730699653397    1.39636180621838   -1.07294956109950
O          -0.70208711247023    0.68736829098825    1.21978248047183
O          -1.97811889850032    2.60033323926806    0.39137168334229
O          -1.46623749846120   -1.87176978283622   -1.59352359511476
H          -2.03334615662380   -2.63019884702914   -1.73751317884443
O           2.46553386263445   -0.96180165796891   -0.09839577827610
H           3.33978060715871   -1.14312812192578   -0.44593877861773
O          -2.96879537117377    0.20533831406498   -0.23061558045623
H          -2.37040384239037    0.05431377198079    0.51264550368415
H          -2.61325320507058    1.93243835124133    0.06148255548452
H          -2.54924582246038   -0.24204896066144   -0.98165407725447
O          -0.15012872324406   -1.89812894207921    0.74086562432517
H           0.78896428953322   -1.86281275482887    0.52415386403114
H          -0.40990998613765   -0.98058677490031    0.95319056906550
H          -1.05148897730764   -1.99370541002633   -0.70912366461849
O           0.94550068008954   -0.54531630656070   -2.12128180636027
H           0.20941063311033   -1.17150876073375   -2.19619703005080
H           0.49370211281085    0.28436103311344   -1.85124966766419
H           1.88116666378683   -0.79614129909102   -0.91365992728076
N           1.81303032614471    0.86247580476526    1.73379133015004
H           1.54326463271705    1.80490469502852    1.29464078168598
H           2.38037702749186    0.94526498325351    2.57054321711001
H           0.83476436433632    0.53208592052882    1.91708702848347
H           2.22618142772302    0.20809658742119    1.01700442969472
