    26
        -50.47393289  Gyration_radius:  2.40350608843 Dipole_moment: 4.917
 S          -0.43870796999778    0.86653868587541   -1.35733294554775
O          -0.75826641808762   -0.55958498190411   -1.16236643585473
O           0.86884989991780    1.16519635015680   -0.77497191855759
O          -0.34375149733708    1.09873649786525   -2.89035238235897
O          -1.48083200772076    1.72438501525028   -0.84672413975498
O          -1.87803075236034    1.58558352174617    1.69664571744910
H          -2.56603143957729    2.20669627326767    1.94036191924002
H          -1.76241485430800    1.68308336202383    0.71237334795637
O           1.63465215767114   -1.32360355449077   -0.62494018603346
H           1.87380600645469   -0.37913701528131   -0.64843785567484
H           0.66739876596726   -1.26191023110726   -0.83138838741653
O          -1.68236585654893   -1.11394934413420    1.26525452300548
H          -1.50578223743201   -0.99578932676841    0.30620720899589
H          -1.95985151851235   -0.23274742379383    1.57153729575088
O           0.85810841144900    1.47345958994965    1.84557098664434
H          -0.07808781305861    1.68556141535315    2.00443080400688
H           0.96177779171385   -0.06759194532326    2.04323927881161
H           0.95601316934298    1.52025333363503    0.86667247743556
O           1.15327314360556   -1.04822715706376   -3.38379302695410
H           0.27477550946382    0.39911615663892   -3.18735924809151
H           1.60396429265942   -1.27937790816923   -2.55474083852889
H           0.44905407415659   -1.69197732418122   -3.49515224756162
N           0.84368212299923   -1.13178230126835    1.93838321018037
H          -0.20769763882669   -1.27269969977974    1.78111462314259
H           1.19306355193096   -1.64661981317628    2.73782709535532
H           1.32340110648316   -1.40361217533730    1.04794114432736
