    26
        -50.45531362  Gyration_radius:  2.49878688446 Dipole_moment: 3.251
 S           0.78884828432399    0.47821600984755    1.20238465155857
O           1.20436953217988    1.30750495507200    2.30079781054180
O           1.65541856424032   -0.85523463033025    1.22711351435054
O          -0.60786428299864    0.03180507393110    1.34153955714285
O           1.01738775713967    1.03878185041276   -0.11354151740883
O           0.95078976083957   -2.23396988059685   -1.07133359591419
H           1.43661100545088   -1.91219513787801   -0.29597712425500
O          -1.92616940804981    0.23926798462785   -2.24178869002774
H          -2.81685241269201    0.26223252407992   -2.59424012943340
O           1.64463383641185   -0.74165846797870    3.83159144553125
H           2.47860371978269   -0.64389719360309    4.29701826271502
H           1.39335945388883    0.15578578335798    3.52051457907642
H           1.70141348416986   -1.06450765185403    2.18725322652843
O          -1.35120165943421   -1.50654004408737   -0.42782655094404
H          -1.62428708548015   -0.88705574659566   -1.18385261325957
H          -0.42791104878884   -1.94291363171012   -0.71811109606769
H          -1.07681546540198   -0.85655055327777    0.38625539985321
O           0.92782228389083   -0.07414589552674   -2.55196603724907
H           1.09463382409865    0.45930453285780   -1.75145076631393
H           1.08894421586913   -1.54628632768562   -1.77628292772546
H           0.00574272048919    0.09006495571740   -2.78391688800470
N          -1.54198980323541    2.14814864879563   -0.50381927667771
H          -1.65089209931241    3.14347394669591   -0.65283758644533
H          -1.82183223563751    1.04667782723995   -1.63488196940507
H          -0.54866951290210    1.95652724504439   -0.36327114499892
H          -1.99409344883827    1.90716382344791    0.37062944682914
