    26
        -50.45531366  Gyration_radius:  2.49874492346 Dipole_moment: 3.250
 S           1.31401979931686   -0.37374871855538    0.65640472157474
O           1.91490844744133   -0.88635504717929   -0.72405445371751
O           0.10185784175814   -1.18228121109144    0.87202930813281
O           2.29684308044403   -0.58680447954994    1.68372777754811
O           0.96762128414141    1.01145562428361    0.41288719953831
O           0.04715497121027   -0.18258619287070   -2.64659994025535
H           0.87606929512026   -0.42347425052060   -2.20425323895805
O          -2.70538829100940    1.20535963683648   -0.14555331708930
H          -3.64633714018709    1.19873817758858    0.03509845275641
O          -0.39536847189034    2.17015087899058   -1.58532311983766
H          -1.28946368417916    2.14416946561272   -1.22348574468829
H           0.19330202232531    1.93089801722015   -0.84411459688374
H          -0.07631193122270    0.78830671293796   -2.47036207185653
O          -1.57145166055460   -0.98199208499833   -0.91950939400279
H          -2.08715069271492   -0.14375645575795   -0.67197459881807
H          -0.95549826282770   -0.72073439452705   -1.74392897357980
H          -0.86791249609708   -1.12934896857347   -0.11711574976257
O           3.14132057558166   -2.78010414940302    0.58229890251599
H           4.10094994912107   -2.80695919707937    0.57280076494649
H           2.88896918769873   -2.10813400071088    1.25316260954914
H           2.37921125404830   -1.71344155656998   -0.46314719143432
N          -1.31367206716832    1.12693905164941    2.06082103346731
H          -2.22754795144106    1.24978575587444    0.74940647268177
H          -1.32841989155635    0.18619651192537    2.43755780414106
H          -0.40351828777683    1.22913564100608    1.60882097513039
H          -1.35418691957455    1.77858522344295    2.83440636893681
