    26
        -50.45731625  Gyration_radius:  2.44445032186 Dipole_moment: 6.861
 S          -0.74438918850575    1.29163141160414    1.33471721753521
O           0.12546705531532    1.63387626220684    2.43835410497864
O           0.03592888647182    1.29269665393985    0.07073334713991
O          -1.42817960918425    0.02341905880682    1.51853066419337
O          -1.81726009237917    2.40933687280747    1.16324771017444
O          -1.45304071456130   -1.08056503307287   -2.21557218510284
H          -1.70993068056169   -1.41938419010206   -3.07372056900763
O           2.16752822981754   -1.59802187348369    0.24510138641650
H           2.56150940726271   -2.41112618269274    0.56385268827964
O          -2.94396416747462    0.70841254860432   -0.56395605127153
H          -2.69708661430273    0.19811717441601    0.22319857283531
H          -2.36925431930335    2.06726060049982    0.43074075056736
H          -2.50059553195741    0.24776434768914   -1.29307792390105
O          -0.38104556899740   -2.01156466409870    0.21787860766556
H           1.17358412623417   -1.76875220266253    0.23816182292893
H          -0.78137518797465   -1.33043450663695    0.80075437882888
H          -0.81325192627782   -1.87660170776057   -0.64057730881465
O           0.99439535568245   -0.04158472395584   -2.04886642826998
H           0.61301526720053    0.55599906981325   -1.37890130247937
H           1.54693838813776   -0.65972265759708   -1.55743962969967
H          -0.55949366038621   -0.67746953083922   -2.31929242886926
N           2.25992223295363    0.88797652851687    1.18403044203560
H           2.39291364522379   -0.13498377389567    0.98544170733527
H           1.47671589501817    1.19629266125715    0.50413068685076
H           1.73460317471200    1.07243298686141    2.06664912934051
H           3.11634558783593    1.42499486977442    1.10588059030995
