    26
        -50.45531363  Gyration_radius:  2.49879644878 Dipole_moment: 3.250
 S          -1.19641677497870   -0.00507515147915    0.92998501497216
O          -1.35353975573317   -0.28270663533039   -0.50799343543129
O          -2.30373689909137   -0.50084805853860    1.70127092697572
O           0.11170200901761   -0.42272742672656    1.39103065892987
O          -1.17612217584793    1.58095477292950    1.04701497298767
O           1.13685415298546    2.38439407150526   -0.25090773067086
H           0.36451379494016    2.35786702063751    0.33524100423834
O           2.19777730357219   -1.20022986347191   -1.58829101378787
H           2.53194804547434   -1.65943148359953   -2.36001290161454
O           0.43309653170405    0.65699728810467   -1.91312234204696
H           1.17018174247051   -0.03844867710982   -1.85925450160472
H          -0.38914361700908    0.24264849325889   -1.35377674538863
H           0.75072031966694    1.47563013793920   -1.31637225281774
O          -3.78200820761328    1.54919119089807    1.11088324081873
H          -2.13055069741038    1.81332238620485    0.99331504698487
H          -3.49500963442236    0.63329722527981    1.32062768854676
H          -4.23226167912347    1.87809001345354    1.89240820411878
O           2.57117506869444    0.44005383312726    0.75918650569715
H           1.76302327404239    0.07568431578950    1.16814116934188
H           2.78115554994931   -0.15428824121020    0.02866398586475
H           1.82981036599298    1.82894865875322    0.19648850891922
N           0.42749197394013   -2.63824194232735   -0.31929005268626
H           0.55302880981707   -3.56674766135193    0.06393187814950
H           0.31069934022639   -1.98806277672061    0.45966651886213
H           1.57598149704621   -1.84008543931476   -1.10341024527256
H          -0.45037034830043   -2.62018605092816   -0.82542410407969
