    26
        -50.46000140  Gyration_radius:  2.49613274711 Dipole_moment: 2.093
 S           0.65555775584477    0.80305277549156   -0.21158335541703
O           0.26801132815778    0.05980286697075   -1.40442975531421
O           2.07555217623916    0.74389671943387    0.05905567056716
O           0.24594770756351    2.28788714184652   -0.47833917262476
O          -0.13507912349490    0.37175656105349    0.94820217348408
O          -3.26612679545195   -1.17721373094922   -0.54507087621195
H          -3.41105450469062   -1.73095224218471   -1.31503912722960
O           0.37627201718489   -2.53934738702393   -0.95868404448704
H           0.33392021932576   -1.65178765074208   -1.37643444943561
O          -2.18715618751814    1.00050014459639   -1.56084151561930
H          -2.96644714107123   -0.29935031981972   -0.89317994687577
H          -1.26859188251414    0.67021501190555   -1.64690869048369
H          -2.10375844729298    1.85118661822487   -1.12532206038199
O          -1.22653021772192   -1.86108655380753    0.82809484775903
H          -2.10628116761178   -1.64730720510251    0.34392437261673
H          -0.57760544692351   -2.29486458151383    0.10310766465003
H          -0.78328230387947   -0.92763085809623    0.98592493301160
O           2.66055959160582   -1.84414081499632    0.20748577319913
H           1.25339618532280   -2.53394918365452   -0.51170738303776
H           3.50148240307209   -1.95005626951700   -0.24139056457827
H           2.48213940948855   -0.87846690529787    0.21610600429704
N           1.27565000552240    2.80706661380956    1.84651156736885
H           1.68733525792615    3.55246900041645    2.39397114658765
H           0.56855787753605    2.74199801077757    0.35021580255817
H           2.00650094433206    2.16575329306588    1.55191307908007
H           0.64103032906350    2.28056893505547    2.43441790651016
