    26
        -50.45334092  Gyration_radius:  2.59305965225 Dipole_moment: 3.797
 S           0.57214425510117    1.35558809452173    0.20236889758573
O           1.49579681419420    2.57922967915885    0.15475441344616
O          -0.20455835036231    1.28949391144236   -1.00148283860914
O           1.56017103091880    0.19420875157916    0.29027082868028
O          -0.21869688123905    1.39442177824183    1.41352603623298
O          -2.21366227405441   -1.53582455317300   -0.17122207734798
H          -2.86807822145937   -2.07838909191595    0.27126199504710
O           0.90028375618579   -2.62850834924150   -2.29086569597857
H           0.60160619172777   -3.43225355765562   -2.71849153239064
O          -2.64003292487757    1.00099306725983    0.36984394803362
H          -1.86151443068504    1.18408862651712    0.93077180970222
H          -2.42620342123674    1.41649907572812   -0.47169276466740
H          -2.42628342723440   -0.59364284129542    0.06510941845043
O           0.42697696961405   -2.01812551040715    0.24377547492797
H           0.71749586740953   -2.35466764925590   -0.64028639128195
H           1.09088642110074   -0.76102069090227    0.29954896600430
H          -0.53608394146765   -1.85417605244623    0.15545502338984
O          -0.99594230935509   -0.79359070662301   -2.59871786819672
H          -0.65365478726016    0.03260446062786   -2.22133917282542
H           0.27267190682209   -1.91679307461610   -2.56574496039794
H          -1.60449295234776   -1.13772499145468   -1.92928506844603
N           2.27536942431917    2.14301983079957    2.55656578523464
H           2.52640002832724    2.79741797272177    3.28582903899651
H           1.94618459257502    2.56549798250003    1.07284668478053
H           2.92328878589419    1.36647598541471    2.56972844538877
H           1.33992788741974    1.78517786239533    2.72747159429346
