    26
        -50.45416508  Gyration_radius:  2.49542828875 Dipole_moment: 4.883
 S          -0.23598446628778    1.27701883306525    0.24189567839127
O          -0.62053756082133    2.52583620364549    1.07558933138031
O          -1.45797843082141    0.71977907991270   -0.29482968308486
O           0.72816030521053    1.65917720426928   -0.77487420741255
O           0.38300903404058    0.31126072164207    1.18691271893662
O          -2.98846534182686   -1.35870418017160    0.35168717967557
H          -2.83353782918768   -0.39759212716137    0.35844205108796
O           0.49837333456737   -2.46015875703829   -1.19163745918637
H           0.98615407103904   -3.26212691663644   -1.38577748603290
O          -1.94563085025954   -1.31537102542546   -2.08822013935604
H          -1.10415002503071   -1.78760976648981   -2.05401761176077
H          -2.89258279803084   -1.58006419855833   -0.60435527726759
H          -1.75531522460774   -0.42002785514199   -1.76446422940086
O          -0.66190096488441   -1.92174436479232    1.07351503310331
H          -0.22960662473908   -0.94509546828261    1.20300765122477
H          -1.69480063772559   -1.74889073372586    0.84952959301300
H          -0.24810021602325   -2.25778119858822    0.21926934874875
O           2.16577461301987   -0.52253153557085   -0.73026308136000
H           1.70392746656039    0.31724650412297   -0.95656179208325
H           2.14779070533961   -0.52383903082462    0.23380389680214
H           1.17281813122281   -1.72138879921957   -1.13017834048299
N           1.90565011313513    3.14906959093419    1.29736305378636
H           2.42831993074724    2.55545952110135    1.92752275922687
H           2.34576243826299    4.05939915932676    1.27149636685001
H           1.93530200348939    2.73916828136106    0.36685619605036
H           0.26754880358732    2.90951086836027    1.31828844915001
