    26
        -50.45334083  Gyration_radius:  2.59265968103 Dipole_moment: 3.808
 S           1.12928267315558    0.96519827089968   -0.03164630146165
O           0.93427761325752    0.35047431255387   -1.31264530426471
O           1.75089747220971    0.10143885847275    0.94888554442089
O           1.96516863535547    2.24106717128202   -0.19292024029318
O          -0.18565677187275    1.49613974822124    0.53546640765858
O          -0.81100141193685   -2.56345903820487   -0.22323200869984
H          -0.98365138776861   -3.40491837834958    0.20174779418655
O          -3.33696449604786    0.22018170192033   -1.33749013719642
H          -4.10857629455817   -0.28296985281196   -1.60122648539126
O          -1.88504984019156   -0.29615963285586    0.81782123301981
H          -0.91659263115004    0.73781160345894    0.68955759849638
H          -2.54008025705083   -0.03954682677424    0.12179088010435
H          -1.48487188872944   -1.13389450978734    0.50123955292938
O          -1.21208492881419   -0.90739186817619   -2.46506215310322
H          -2.59061355906913   -0.09856641403623   -1.90074464856351
H          -0.44596603258817   -0.35366240022560   -2.24453492876584
H          -1.14942265387191   -1.66600642106095   -1.86723346890424
O           1.78119352879812   -2.17938419527965   -0.43006458967622
H           0.17800306466227   -2.47597152683530   -0.27753906358972
H           1.84486386539122   -1.74627753061074   -1.28735773453322
H           1.89099156927306   -1.45232430527669    0.21305471419164
N           2.05863242063264    2.55719565554498    2.34847387251904
H           2.05112026534373    1.54303971294952    2.41011289987951
H           2.79968991390999    2.92675820441300    2.92930477579908
H           2.09648707281870    2.55581004962546    0.77115567445431
H           1.16992403881187    2.90541762091706    2.68308609675788
