    26
        -50.45567454  Gyration_radius:  2.46090734564 Dipole_moment: 5.083
 S           0.90252945629541    1.63094556745333    0.56039969979887
O           0.06456541075273    1.01921114722454   -0.44148249693637
O           1.15683565373225    0.60521395358843    1.68274245875326
O           2.29546312280491    1.87590856588931   -0.02716939717964
O           0.38289418462362    2.84407746063300    1.11347130372324
O           0.45605529034775   -2.17013074534137   -1.34708656963672
H           0.27937396475443   -3.04723051014287   -1.69036903636739
O          -2.57401356868905   -0.40810637610055    0.85851297480105
H          -3.21788492078124   -0.57645125481236    1.54850953986403
O          -1.59319928027240   -0.57890851174681   -1.77726778314999
H          -1.03718783599476    0.16705686435820   -1.49335366488717
H          -0.30793031647417   -1.59849031272290   -1.63132469776511
H          -2.19331463532064   -0.71248736046657   -1.03065958931313
O          -0.13214474458610   -1.50965908748305    1.23106881182359
H           0.64219910018840   -0.27809198435869    1.52718128393516
H          -1.04165124765962   -1.15778189323067    1.11928924048214
H           0.14743564092988   -1.80275973048942    0.34037771236973
O          -2.21633826283493    2.22788358028627    0.92352879164310
H          -2.40506784649107    0.56674817832565    0.87872219880954
H          -1.29998917070640    2.50938577671855    1.11489201379022
H          -2.40858262877039    2.57801417624557    0.05076667019513
N           2.84083345710500   -0.52145104246689   -0.73549071368233
H           3.55782547229777   -0.63984496224954   -1.43949912934045
H           2.58585847335847    0.93516624447880   -0.37741069150576
H           1.98403137455838   -0.96012636110130   -1.06726504894857
H           3.13140386688260   -0.99809136245793    0.10891610871412
