    26
        -50.45622830  Gyration_radius:  2.46223055371 Dipole_moment: 3.316
 S           1.09572697010851   -1.20673949963619    1.31787979614406
O           1.47758747911101   -0.21811010188010    0.31965808896435
O          -0.41474204821212   -1.48193035102479    1.16214945075434
O           1.78817775470813   -2.44309518824305    1.24063435296986
O           1.23315273009115   -0.57411750012464    2.70184078713629
O          -1.43016983514497   -0.96151246613158   -2.15791295642967
H          -1.98636283941799   -1.57422808200575   -2.64039401248112
O           0.26897002108888    2.07068024647804   -0.24987196089194
H           0.88384752607140    1.34008138832353   -0.03973949666534
O           0.18770231702307    1.21159637252869   -2.82443473815320
H           0.24009266457579    2.07863167256884   -1.22629197603302
H           1.01667002766713    0.74498800400331   -2.95042083760434
H          -0.49062027738031    0.52433873904355   -2.72130966819854
O          -1.74892807184638    0.42217345135110    0.17972746038945
H          -1.88793749194827    0.00174020402561   -0.68756271195256
H          -0.96958392126938   -0.68467299440769    0.81009342588392
H          -1.08576563467505    1.14261018575427    0.01323137362083
O           0.91423835981889   -2.06075071353933   -1.50678788824063
H           1.06270667907783   -2.83085627379661   -0.95082195283002
H           1.27354845486449   -1.32149011881416   -0.98405770382487
H          -0.61198025149982   -1.45539697159909   -1.91326816181458
N          -0.21302507577051    1.53016721266956    2.62541770679680
H          -0.15680570134534    2.10422366902598    3.45636553612233
H           0.66711872491418    0.31799670420916    2.71487321412786
H          -1.17349326850169    1.23712114467980    2.49033239268222
H           0.05987469788565    2.08655125657524    1.82067048954167
