    26
        -50.45731629  Gyration_radius:  2.4444440723 Dipole_moment: 6.860
 S          -0.39200348148812    1.51424758170216    1.24818394174581
O           0.74429222792462    2.06205128344490    1.95571525820570
O          -1.53488441426350    2.57383156739612    1.21761207472603
O          -0.02594807455252    1.28345251051607   -0.17280417340022
O          -0.90914419859765    0.29879768981253    1.85226888448283
O          -1.97656375223807   -1.48602253808600   -1.43971661689479
H          -2.45632973264761   -1.98049000473258   -2.10501992853543
O           2.23755916896886   -1.51058140778571   -0.14953070817748
H           2.75900561208608   -2.24740173884405    0.17163499891162
O          -3.01618381511067    0.57264036033868    0.24312331778750
H          -2.51449226025063    0.22070162478889    0.99502752235369
H          -2.25757755689363    2.09797873655311    0.76002365923991
H          -2.78241701452448   -0.01446122085700   -0.49247867080495
O          -0.17143748968775   -1.93734891779094    0.67566718083103
H          -0.84765140444841   -1.96867107095710   -0.01983762301076
H           1.29970012052080   -1.68559581877747    0.17751868946645
H          -0.42182615477117   -1.16145300265422    1.22269833473576
O           0.33844581560171   -0.41846381836840   -2.21317767029251
H           0.13749172692824    0.29179232168535   -1.57561091529284
H           1.05010090441821   -0.93015738557162   -1.81241396636877
H          -1.18194241727336   -1.10375625257964   -1.88028670625679
N           2.44967581054176    1.10755784490282    0.26293461642955
H           1.48177099664927    1.27851580584139   -0.18934960065225
H           3.20843023696467    1.62583737058750   -0.16559838839516
H           2.20064789589014    1.45066102719960    1.21654732113077
H           2.58128128025569    0.06633745223575    0.21686915803467
