    26
        -50.45567435  Gyration_radius:  2.46084849242 Dipole_moment: 5.090
 S           0.88956185630627    1.33108860459137    1.10906413839708
O           0.46974650410907    1.97380841592538    2.31658242995812
O           1.57544872055109   -0.01031044719728    1.43631294927960
O          -0.16725054632923    1.08817153821965    0.15809166559573
O           1.99611961023799    2.14816889790965    0.43619971309955
O          -2.11556633641418   -1.37152068712759    1.08169739884505
H          -2.48962883414463   -1.99516247987947    1.70636117346413
O           0.18583048284789   -1.08779685527671   -2.34777820567028
H          -0.01547919834567   -1.71079323767060   -3.04754075520608
O           0.40377936186432   -1.89538923446027    0.24648319040580
H          -0.52042086313770   -1.76418399833685    0.54944971928164
H           0.40634148803832   -1.65227697761902   -0.70125536534931
H           1.12003335486286   -0.80683635815356    0.96082001195091
O          -1.98882873268090    0.91756244610677    2.43276903969485
H          -2.03474660025142   -0.51490288830559    1.57047914393711
H          -1.08814263149231    1.28517227825054    2.52793509453924
H          -2.47965609310362    1.58123957403887    1.94297696834887
O          -2.02233030374865   -0.02702802713921   -1.39154844187069
H          -1.47125822977467    0.60304016972412   -0.89604157379844
H          -0.67539843595303   -0.65186489975546   -2.10383672784706
H          -2.33574012577001   -0.63917051854538   -0.71144294320847
N           2.48774050077904    0.58915352387406   -1.53148921072109
H           1.61077615220848    0.17053432874494   -1.83523574498306
H           2.94601045181573    0.99782463836480   -2.33553875816791
H           2.23772106106282    1.58815204094936   -0.41302484627410
H           3.07533739647348   -0.14667983722627   -1.16049005370692
