    26
        -50.45896422  Gyration_radius:  2.46119573017 Dipole_moment: 4.072
 S          -0.21764089456591   -0.73968484268005    0.53334912113621
O           0.22920360480116   -0.55592993621907   -0.86591861842268
O          -1.65547153500335   -0.89754121207715    0.59642417671925
O           0.46336049101818   -2.05811868367032    1.01730420100262
O           0.28484991783338    0.32873591404678    1.37259967891283
O          -1.36987168617902    2.98778572225193   -0.62847106924040
H          -2.09853974343282    3.00143938769486   -1.25122728552149
O           2.32643645514410    1.72903624610766    0.49070066331725
H           1.62155377646788    1.33964129545347    1.05633276151231
O          -2.18752319170935    1.57071936421789    1.41137608289952
H          -2.17824940284477    0.64048671447035    1.10460189464366
H          -1.45542566274423    1.61226795827262    2.03488049516434
H          -1.70024173210288    2.50134636647372    0.17871156751602
O           2.82939275732177   -0.82031216602076   -0.17867550533204
H           2.76882320097498   -1.40597737180338    0.57968555439125
H           1.94338686044832   -0.83642260688145   -0.58204193775632
H           2.85819522781450    0.94643539511477    0.23324821978191
O           0.74916428088042    1.83083121784124   -1.42887573035828
H          -0.07881282927325    2.36346356078330   -1.13196991183576
H           1.49505136864953    1.94177227944825   -0.66162542713734
H           0.49597287567309    0.83420217247416   -1.31503735815112
N          -1.07321432959916   -3.38608362315040   -0.59514852830614
H          -1.56001091724184   -4.26990851036606   -0.51967656760482
H          -0.00715672242496   -2.76094771002223    0.47824107803871
H          -0.76421001273090   -3.26668009591735   -1.55111917786715
H          -1.71902215707465   -2.63055685587002   -0.37766834752690
