    26
        -50.45896426  Gyration_radius:  2.46128714938 Dipole_moment: 4.077
 S          -0.77175150804136    0.46936624670680   -0.25483645762954
O          -2.13304261120095    0.16196884128268   -0.95385602537738
O          -0.49582682440373   -0.70405582472763    0.60466231810748
O           0.22494486590960    0.58001337434945   -1.30025782056902
O          -0.90879833599135    1.66923951995661    0.54380332336810
O           1.64495487141097   -1.55526522850388   -1.87424596233931
H           1.22935753202213   -0.66341152604583   -1.89374951743038
O           3.05175339147327    0.82454809221334    1.10475238731511
H           3.12219581381871    1.05152864389425    2.03346515975402
O           1.50657940707985    2.64007779146236    0.03026884179196
H           0.59999664332286    2.42945176980535    0.33561526352100
H           2.51470337277975    1.55074381572322    0.67882173625810
H           1.49081898734925    2.41162616269811   -0.90462293889911
O          -0.85795782331350   -2.42317979616513   -1.44843991441767
H          -0.82832069787652   -1.93930360067281   -0.60404493709662
H          -1.49560231558975   -1.94757234205814   -1.98600717771141
H           0.87283318097955   -2.15793346085955   -1.92155904829309
O           1.91464899523474   -1.39209266145793    0.59207408888818
H           2.44068149819771   -0.53309986990041    0.79926750978962
H           0.91751974853167   -1.14604244096537    0.71644256695266
H           1.95602632365044   -1.54678197129076   -0.47191442735646
N          -3.31516355824413    0.43206071498945    1.33800262819198
H          -2.56535953644121    1.10324550136416    1.48795515519754
H          -3.13457865875454   -0.37328522558099    1.92313001298682
H          -4.19335610059245    0.84784729691032    1.62024178899740
H          -2.78725664127280    0.21030616690195   -0.19496855400608
