    26
        -50.45896431  Gyration_radius:  2.4609245892 Dipole_moment: 4.069
 S          -0.34117561592011   -0.41251787539972    0.77072012547630
O          -0.81816653468318   -0.23910247414243   -0.61992506575849
O           0.26785329108579   -1.71442260682342    0.94540955350505
O           0.52148506811921    0.68626466505582    1.15388068559961
O          -1.61876039945906   -0.32141110618105    1.66279843091413
O           2.94396329307341    0.04216930259078   -1.58990893753786
H           3.13934546771196   -0.71372462499027   -2.14616122126725
O           0.38867956653843    2.90310424373018   -0.25197548079308
H           0.58673066621681    2.23651793593642    0.44422854379055
O           0.70854795363196    1.17820556238529   -2.01441302424644
H           0.64660961889712    2.03636168299932   -1.36890317382294
H           1.64349509533340    0.76759674942317   -1.89140824609030
H           0.05429884978787    0.52955439737543   -1.54380348071630
O          -2.13710865310193    2.03452606728051    0.00672492306550
H          -0.59054166199982    2.95177139062172   -0.23673059682059
H          -1.82278142044136    1.17560444590108   -0.32713372497626
H          -2.36699416537789    1.87575156996824    0.92527037174141
O           2.78399378037768   -0.87809877586828    0.85214931337044
H           2.63146093712816   -0.09415786856465    1.38937789987347
H           1.93138944606244   -1.35845025263978    0.89567671392960
H           2.94479985123963   -0.29419747880847   -0.64951813799930
N          -2.39948296931967   -2.59376053847080    0.68778145783906
H          -1.39700990485716   -2.76358284450756    0.65086143134563
H          -2.85790223739944   -3.40207363145437    1.08815346923965
H          -2.11299335218825   -1.16181409624639    1.42736166679692
H          -2.72973596031357   -2.47011384912479   -0.26051353646616
