    26
        -50.45896434  Gyration_radius:  2.46100135871 Dipole_moment: 4.071
 S           0.20125144823103   -0.20931568322352    0.89275632594908
O           1.57758142465004   -0.64545336139026    1.00119837420215
O          -0.33467987037408    0.15066683440255    2.31381616544197
O           0.10797152057271    1.04223038225595    0.10757025434282
O          -0.68491924788170   -1.21827040456313    0.34946398466700
O          -2.64551731945665   -0.42281521893701   -1.21000293379937
H          -2.05398623428708   -0.95981922531668   -0.63556482374046
O           0.92730140264098   -1.15980341458814   -2.99968827658651
H           1.77746512966635   -0.86261025459977   -3.32811353598015
O          -2.49017885920872    1.38385341628436    0.76779307375045
H          -1.54187208516298    1.45640590818239    0.55938929391341
H          -2.94199752404534    0.29397777022314   -0.61011211184471
H          -2.52420310998761    0.96823840773590    1.63260920855836
O           1.42935815274330   -2.54848935569945   -0.84168214411890
H           1.11931108342203   -1.74296400794680   -2.21208022834107
H           1.66652970610470   -1.89112013585217   -0.15528324836752
H           0.56577317579329   -2.86847580034595   -0.56192103079629
O          -0.66833903531635    0.67215036756832   -2.24700855891848
H          -0.27850463859716    0.91819167393146   -1.32076350544875
H          -0.05535824325021   -0.06473683233684   -2.61973899872057
H          -1.59521812543333    0.20649862511562   -1.96227766023046
N           1.77783150919234    1.60721949183757    2.68564982596260
H           2.37873178371844    1.77065472211093    3.48314489715261
H           2.20053729307629    0.89948683022034    2.08933417356177
H           0.37742714793557    0.76077258767122    2.67012990209902
H           1.70770352522652    2.46352666731851    2.15138156727411
