    26
        -50.45896433  Gyration_radius:  2.46106447194 Dipole_moment: 4.070
 S           0.91472498153242   -0.13435731517528   -0.16319674439929
O           0.74774951930816    0.56233642935029    1.09583534034017
O           1.97973739917947   -1.25109274436071    0.07158599222195
O          -0.32911305156276   -0.84728285292198   -0.53212274818443
O           1.35537088892917    0.72175176808326   -1.24445977684272
O          -2.10397524446633    2.59910611057754   -0.14712253757927
H          -2.42549675014258    2.83971254487968   -1.01756298021921
O          -1.21810801852345   -0.19276906122901    2.66782729578098
H          -0.40649175808741    0.23044847942948    2.30623331681701
O           0.48011419959677    2.99569281018490   -0.19423408397987
H          -1.12767622363921    2.80908960072513   -0.14118483241926
H           0.76598771887549    2.78947181213397    0.70138982292852
H           0.84890048013796    2.26317229709330   -0.72984954685176
O          -0.18035558288357   -2.44467327678529    1.64249233126071
H           0.76857495125096   -2.49414381071470    1.77977925816834
H          -1.01478182511528   -1.14964239830620    2.60065943112150
H          -0.28800287298026   -2.03560528388421    0.76549441079978
O          -2.38280319929590    0.15490750690746    0.49866893181665
H          -1.60773687454529   -0.28699660261910   -0.02489735162122
H          -2.03798318352152    0.03976340448728    1.51133034590377
H          -2.33715383539003    1.15656741969296    0.27020638548288
N           1.94794328081350   -1.74598958055435   -2.47361735883973
H           1.75780330971127   -0.74771575645162   -2.52359251317139
H           2.12699665226784   -1.61378741102964   -0.85185501246204
H           1.09913504743405   -2.23759028345905   -2.72161941274685
H           2.66663999113706   -1.98037381604207   -3.14618796326921
