    26
        -50.45469730  Gyration_radius:  2.51021398713 Dipole_moment: 5.579
 S          -0.74987416069018    0.83550976571188   -1.90735303013589
O          -0.21454586455284    1.58408422745471   -2.98861587734036
O          -0.10919809206321   -0.57093839187080   -1.92549525845253
O          -0.55105139816008    1.40776864672226   -0.58665125740010
O          -2.24574664142836    0.57376283111104   -2.10376003901378
O          -0.94137291776724    0.28573941494563    1.79288086085436
H          -0.85273906487955    0.88503849754866    1.02650018178905
O           2.64049314454265   -0.55785715816254    0.40381441726237
H           3.50543028706173   -0.89342753084986    0.16406480537031
O           0.12738619356173   -1.65323463208100    0.34750959337386
H          -0.30904519702182   -1.01692410209403    0.97180440130251
H          -0.06160668522822   -1.03578790378933   -1.00800278519015
H           1.08129439476234   -1.47761546358386    0.43555051373844
O           1.59731209445010    0.42337432187621    2.79274464732507
H          -0.15964745870386    0.46983277981936    2.34513469451351
H           1.97681950573334   -0.09201077297278    3.50548885436789
H           2.04956701010541    0.15145601173721    1.97575684167563
O           2.04295058910843    1.47455152316563   -1.20695809595955
H           2.45487750104512    0.18657301888611   -0.21901491352552
H           1.86880188400279    1.46163508786453   -2.15315368366190
H           1.18511444262324    1.70577387407962   -0.81320012688344
N          -2.89719923233579   -0.88385819872375   -0.10052839659898
H          -2.55597597329964   -0.43279736281075    0.74321421539380
H          -2.41676120278498   -1.77035196480121   -0.19716153991010
H          -3.88896843808945   -1.05624558932051   -0.00182920164027
H          -2.57631472000901   -0.00405095987083   -1.29273982127638
