    26
        -50.45469728  Gyration_radius:  2.5101752346 Dipole_moment: 5.582
 S          -1.46263145240011    1.19824233201508    1.15002817002661
O          -1.14604000021306   -0.23438005194282    1.63631886747597
O          -0.78294781586848    2.10727212141999    2.17771464172308
O          -0.81692872920105    1.39341391889914   -0.13698094757893
O          -2.87169623098216    1.37298673038774    1.16398908099377
O          -0.69675292287928   -2.31064214031311   -1.27250646333967
H          -1.13664836305613   -3.15768103005649   -1.35759349455667
O           1.67290114075130    0.80212660358150   -0.86177868250353
H           0.78106832580276    1.18332773641993   -0.74502576186626
O          -2.54816418623075   -0.40904834108308   -1.07125947317301
H          -3.17366201861802   -0.25133349252497   -0.35721063192487
H          -1.94712421695529    0.35335647746577   -1.02920747922166
H          -1.41545519348960   -1.63702464174162   -1.19422381921610
O           0.94881605542006   -1.24641991239906    0.64523870984850
H           1.34032718681557   -0.51845871290805    0.09580991602987
H          -0.26521948377994   -0.62745805193043    1.27642482562232
H           0.48319622403449   -1.81862574419728    0.00935030107979
O           1.16197274281423   -0.98228946534931   -2.86652838117359
H           1.63639379700572    0.34001129343930   -1.71913368414893
H           1.75247153708764   -1.64265202058706   -3.23088890469834
H           0.45220443420619   -1.46158245536019   -2.40569475339079
N           1.69792807413194    1.49087561144242    2.01916801157760
H           1.79759103825758    0.53652404815770    2.34366177962560
H           2.32054175482558    2.08564645528514    2.54988764513622
H           1.96968742991606    1.51932059476855    1.04083124036459
H           0.24817088259433    1.91449214717884    2.13960927729748
