    26
        -50.45649595  Gyration_radius:  2.47948424014 Dipole_moment: 4.758
 S          -0.39451337707185    1.50263025214446    0.97271604825053
O          -0.15562659065232    1.48945929358504   -0.48048180737756
O           0.08262973072435    2.69949586580857    1.59038420068244
O          -1.92651906668146    1.32284101244294    1.20313071355791
O           0.25344620596623    0.30205714580150    1.56047055887468
O          -1.68909356049832   -2.08906428680445   -0.66238306006273
H          -2.10788264958038   -2.93858705579356   -0.80536644863189
O           3.15198387201166   -0.79383138007869   -1.12729989468427
H           3.56381613448794   -0.63744928732122   -1.97887190867851
O          -2.57371793083150    0.45856406789544   -1.13426400687668
H          -2.32399245302900    1.00273801419362    0.33684282890297
H          -1.76213058551039    0.90972708665251   -1.41109268532172
H          -2.35645295457236   -0.49357476721133   -1.10883033596537
O          -1.63624733410591   -1.49581002558396    1.90058498827730
H          -2.36781081550129   -0.92256804186791    2.14427646080411
H          -1.65919847154424   -1.94956696457886    0.32065875301413
H          -0.85270314526631   -0.90198865754100    1.87519851421016
O           0.59247389192504   -0.80904741426950   -1.61461061889086
H           2.19124681346553   -0.97258157525276   -1.32006522679740
H          -0.08285567457024   -1.43881515559812   -1.32106809759558
H           0.32342113064186    0.05072783333973   -1.22922853409928
N           2.39136532691071    1.15650920303871    0.45863402832984
H           1.65146978553265    0.67301488585399    1.08145488070678
H           1.78877492733584    1.75865538487963   -0.11887421496896
H           3.03942492480915    1.70383807640867    1.01652900678542
H           2.85869186561077    0.41262646988684   -0.14844413250202
