    26
        -50.45469726  Gyration_radius:  2.51002316494 Dipole_moment: 5.577
 S           0.50330078507203    2.07640236661266    0.57468480645690
O           1.63256226766101    2.13229206502101    1.60727184090557
O          -0.50211707084953    1.13675006647752    1.04099763825332
O           0.03020537567147    3.37817811945409    0.26203998857814
O           1.16813280242995    1.48437011569161   -0.68870791869008
O          -1.26752772108031   -0.59156383854240   -2.34343768133539
H          -1.43628384130669   -0.51662878695202   -3.28371156298513
O          -0.30185460489994   -1.49568858216240    1.36357957067282
H          -0.51889461738461   -0.54459746726548    1.41490513601964
O          -1.83525879358895    1.73901220364673   -1.19007258603611
H          -1.64698713390991    1.47895926702668   -0.27285947700516
H          -1.38709591372315    2.58488586270384   -1.28814731291012
H          -1.48328396048902    0.29174956889030   -1.95666730132215
O           1.01182266041750   -1.03182719648596   -0.88388300983700
H           0.57677123297849   -1.31955040476838   -0.03946424855097
H           0.29812167121020   -1.02957936011771   -1.54657694370108
H           1.15326920373187    0.45633582978988   -0.74327548008691
O          -2.23184582435244   -2.32224977276071   -0.38510286238404
H          -1.08699512213510   -1.90930188725387    0.96070157897906
H          -2.00396149875546   -1.70229980244579   -1.09896735562032
H          -2.33389024275478   -3.18521317482638   -0.78826934417286
N           2.36505367369456   -0.30827919321568    1.87015532407617
H           1.95907486603020    1.14929540585065    1.77453297184671
H           2.76846964822582   -0.60422162241078    0.98941858841573
H           3.03283133097822   -0.47654173378298    2.61098014415516
H           1.53638080697996   -0.87068805805172    2.03987551627909
