    26
        -50.45649615  Gyration_radius:  2.47942056432 Dipole_moment: 4.759
 S          -0.03314522408704    1.62744110648511    0.84262888347402
O           0.20393033358626    1.43832168879974   -0.59868801104662
O          -1.56595463523853    1.82959377175856    1.04833541908864
O           0.31194345074377    0.36214913571732    1.53998484860463
O           0.70793171547512    2.72731531516590    1.37444429066948
O          -2.13401330689087   -1.67622097563902   -0.53926014788310
H          -2.74372202393875   -2.40998739555742   -0.62523011736194
O           2.87965763657221   -1.60704512276564   -0.97848609438937
H           3.32207136824186   -1.62861221573582   -1.82879054238146
O          -2.38596008658226    0.96023618456865   -1.23216895389971
H          -2.02254554473630    1.54573867152741    0.19869351448898
H          -1.48884368047610    1.18263857811156   -1.52288200795696
H          -2.40096271480153   -0.01092192013699   -1.12659307397250
O          -1.95045402873304   -0.90929292153223    1.97100439419378
H          -2.07492009626352   -1.46907470332187    0.43051327796682
H          -1.04867659927947   -0.52049948186275    1.91911528121288
H          -2.52682803333247   -0.16218222250843    2.15204615930114
O           0.39281936758961   -1.05679293690517   -1.53011848077168
H          -0.41491229818622   -1.48281442064493   -1.20626855202781
H           0.33282850860255   -0.12913490298272   -1.22034622128679
H           1.90527787013142   -1.56863073677510   -1.18127538318144
N           2.59489469048646    0.59614282293599    0.42321283951535
H           2.15169161328954    1.27026442523811   -0.21597594925032
H           3.35134912992183    1.02307086719495    0.94877422270291
H           1.76008483544413    0.35375207322333    1.06630804444467
H           2.87645775247086   -0.28545468436273   -0.10897762024816
