    26
        -50.45334091  Gyration_radius:  2.59319569489 Dipole_moment: 3.806
 S          -0.11214189486363    0.95100017083692    1.13567634255588
O           1.24578097413303    1.33165989644619    0.81170653967250
O          -0.13956006221586   -0.53137035987635    1.50272168432206
O          -0.53500217197866    1.62887502783793    2.44501056255104
O          -1.06499592973120    1.25083149121133    0.10654501507388
O          -2.11330000390460   -2.73642893598836   -1.00992627929960
H          -2.34856613798677   -3.31573353686633   -1.73601135990111
O           0.57617703647332   -0.37425953156058   -2.61077575350241
H           1.23076946858955   -0.56724963448100   -3.28360394147919
O          -2.15070228421464   -0.24138279807171   -1.92160891794235
H          -1.31337693909313   -0.27937788284205   -2.40567097818649
H          -2.30473725947635   -1.81630455247754   -1.31435650044014
H          -1.97329408574531    0.33931289681304   -1.16433810919612
O           0.36634882649239   -1.99611151513011   -0.44151115191915
H          -0.51584291258137   -2.42083640141667   -0.58579941014955
H           0.50524376683239   -1.41568528959762   -1.21986788607374
H           0.10213680511149   -1.17305289547636    0.68901106184159
O           0.89946972194415    2.07906430663121   -1.72367415268751
H           0.74404963400436    0.56116337088158   -2.31829502585216
H          -0.01234278587714    2.35885533811729   -1.59365599466349
H           1.22096508497653    1.88778674257878   -0.82130331237270
N           1.62845423744312    0.87257804807406    3.59124355256226
H           1.57060533920451   -0.11244414309468    3.81372464276272
H           0.23577562309961    1.40804099576310    3.08003421110726
H           2.18813098539766    1.33875879335778    4.29310245885337
H           2.06995495397007    0.97231038833044    2.68162270234390
