    26
        -50.45479405  Gyration_radius:  2.47187852625 Dipole_moment: 5.886
 S           1.43828532432770   -1.24086937418893    0.90437209384121
O           0.72537030727454   -1.16258272194929   -0.35831927898319
O           2.82467211402290   -0.62074837373059    0.72815863496690
O           0.73133878836200   -0.30222854749972    1.91060977375625
O           1.53304842275534   -2.54261060920541    1.46654267163761
O          -2.75121114666569   -0.65798761421982    0.09344094634798
H          -3.65376362914102   -0.79661645336980    0.38368067711540
O          -0.13851220720809    2.09680205916911   -1.55001687454291
H          -0.57313027087542    2.77695930568578   -2.06624380550702
O          -0.99194332917376    1.26140148148350    0.89938586365390
H          -1.70348696723040    0.63795825299994    0.65399437830805
H           0.05488854122909    0.34430869158199    1.49409269867639
H          -0.66799756324558    1.63945314951723    0.05783350200202
O          -1.19359806117784   -2.76473777963750    0.60466818924442
H          -2.25259869017367   -1.47221350570463    0.33332244482620
H          -0.76767418403833   -3.14436318251367    1.37775044910097
H          -0.46263660374744   -2.36312542757097    0.10427396215392
O          -1.07551255967193   -0.26382287059524   -2.15882082993231
H          -0.46319018617550    1.22352351023948   -1.90675813324736
H          -0.34950705229872   -0.72873971915507   -1.71134153107707
H          -1.84246651296232   -0.40125863858028   -1.58342599466878
N           2.29838122940769    1.77901706869077    0.03416187984584
H           3.09554240293997    2.28907271294743   -0.32330239584502
H           2.66558168861981    0.36459487862945    0.40087040428298
H           1.96545132978346    2.23978074095848    0.87188575267158
H           1.55466881506427    1.80903297601775   -0.66081547862638
