    26
        -50.45289442  Gyration_radius:  2.6483430219 Dipole_moment: 2.978
 S           0.68841509630538    0.04454390954151    0.43288552076813
O           0.22685442703438   -1.31448852333188   -0.12825158035302
O           0.26005576041472    0.16833485599409    1.79377072117661
O           2.10616154710851    0.17552228830974    0.19966692423937
O          -0.05590516065148    1.07381396233694   -0.41114145902657
O           3.01976647459326    2.35671306315278   -1.13384582141800
H           3.03445597090748    3.11677557304319   -0.55079561122209
H           2.87271031562193    1.57515818490960   -0.57120614331733
O           2.13210290131931   -1.11768827500221   -2.17752571057103
H           1.47408037007386   -1.79724829031062   -2.01031711710201
H           2.37754865915211   -0.77490267410706   -1.30114956535957
O          -3.32050852704321   -1.70346417154403    1.39069082866101
H          -3.63139766381406   -1.95749719530228    0.52054163715419
H          -3.12810141650825   -0.72701516940192    1.35308182729206
O          -0.82248263745820   -2.35932201025346    1.87377352431383
H          -1.80429032991066   -2.23878351016124    1.75634751825400
H          -0.21736729444452   -1.84112686392403    0.65573121679046
H          -0.53616194321583   -1.64656949007553    2.45918074909722
O           1.06747998468287    1.27273141335521   -2.61355830207776
H           1.81433771378601    1.84552506495662   -2.34018315593436
H           1.46302198259804    0.37309267433498   -2.70930883434063
H           0.37265000600178    1.17086068715178   -1.38987069591088
N          -2.49546424286297    0.83523652770068    1.23230918983639
H          -1.53883057414300    0.71872590003522    1.56184956929742
H          -2.93507247644919    1.53911705499950    1.81295884283833
H          -2.42405896309570    1.21195500359395    0.29436591690948
