    26
        -50.45479407  Gyration_radius:  2.47182457987 Dipole_moment: 5.889
 S          -0.37895075586704    1.86142172585197    0.90465745914173
O           0.93337294120927    2.44594684504622    1.42773984588724
O          -0.15997875221413    1.33941876419239   -0.43263529703770
O          -0.65887979541329    0.66455029073672    1.84419540799383
O          -1.43587199106196    2.80422138911462    1.02126179708833
O          -2.10988238819541   -1.54574075259446   -1.08087410894544
H          -2.87345018626897   -2.11570460351691   -1.18164443796711
O           2.01378181843857   -1.48217537517843   -0.75307092263751
H           2.44091148824157   -2.24540337807995   -1.14422562570693
O          -2.79917087379064    1.01267458667366   -0.75583600786862
H          -3.15556624893627    1.55250722440513   -0.04539578644526
H          -2.45724573908609   -0.63346651071073   -0.95380254417362
H          -1.86769609649438    1.28582304522106   -0.81680530404101
O          -0.18639683611875   -1.62105275874093    0.84883650298680
H           0.64720963118028   -1.61344870879725    0.33787868843742
H          -0.44263600306147   -0.25424270362034    1.44660267060356
H          -0.90216219389800   -1.69923714258531    0.18802282394090
O           0.19893356100432   -0.51477198872161   -2.36302720871732
H          -0.61646013546405   -0.99851481228729   -2.16483187279758
H           0.11745520240386    0.31407105677489   -1.86319024438140
H           1.41712646429472   -1.10324518912016   -1.45712204660407
N           2.51291834811263    0.44084040019787    1.39188091180540
H           2.41626751894784   -0.09183280676318    0.52937413579656
H           1.63567789483569    1.66535150013688    1.39540877007811
H           2.22312745424874   -0.15003960794101    2.16119266859711
H           3.48756567294961    0.68204950030185    1.51540971496760
