    26
        -50.45479406  Gyration_radius:  2.47183755157 Dipole_moment: 5.887
 S           1.29580441410235   -0.95818599781912    1.35261971286889
O           2.70139397829263   -0.37460617329077    1.20662323569411
O           0.47982388552741    0.18391343758362    2.00326400712254
O           0.74906765123046   -1.20179229502186    0.02953881919423
O           1.30152890429758   -2.08244850510346    2.22188979894130
O          -2.74960595038766   -0.66356420259825   -0.09535089006368
H          -3.68326843373416   -0.74326083214707    0.10457387171862
O           0.08667277824591    1.65364243722369   -2.01905834020155
H          -0.27052269540760    2.17990826155607   -2.73560161215965
O          -1.29764933099927   -2.55487114895919    1.10495481911159
H          -2.29617258945872   -1.38601463151422    0.39611343517972
H          -0.97767698539176   -2.72725365161049    1.99438119056843
H          -0.50400600413518   -2.27432734486977    0.61765649678175
O          -0.79819818034397   -0.80031359970030   -2.14711477392254
H          -1.63338427910771   -0.80699718608004   -1.65661101052046
H          -0.20216370812568    0.71418132924454   -2.19013499233779
H          -0.14086419160063   -1.12961640783867   -1.51234781560929
O          -1.07978083948441    1.42475478741304    0.43307898230392
H          -0.64717687147390    1.59211383123535   -0.42767605598739
H          -1.76331978546490    0.74811232206379    0.25962380981835
H          -0.12938918259694    0.69802049596514    1.36011008246841
N           2.29932063662890    1.77418768647484   -0.11171654234477
H           1.65002395598993    1.62098337952045   -0.88109172568007
H           2.59810117173462    0.49846737989585    0.63167525594291
H           3.14215805657519    2.19611008241346   -0.47916163917637
H           1.86928359508759    2.41885655596295    0.53976186028869
