    26
        -50.45479411  Gyration_radius:  2.47178377468 Dipole_moment: 5.886
 S          -0.18787442226377    1.62764950375742    1.32014097941729
O           0.12094836034824    2.05915475587698   -0.13298012668662
O          -0.50182932831630    0.20988285262191    1.30939011822309
O           1.13459420727579    1.83508045855698    2.05883123432288
O          -1.20272923727427    2.46858114900437    1.85160255223232
O          -2.15132261684108   -0.77341333910508   -1.66881042013154
H          -2.80422537828491   -0.81240584459172   -2.36898517755623
O           1.66382550120505   -1.93089223162159   -0.56569286737812
H           1.97532456073944   -2.71233064977210   -1.02426915419608
O          -2.95483941525678    0.74521916115277    0.37419796974808
H          -2.18559956999492    0.46841798250752    0.90101669699830
H          -2.52381368209458   -0.18601614410836   -0.97215194737020
H          -3.03562898989095    1.68564401207281    0.55399456155766
O          -0.77572247190078   -2.27955087599054    0.29941952721675
H           0.77856488188834   -2.17032259517345   -0.17295417865308
H          -0.73938460500832   -1.50311249738248    0.88196608945960
H          -1.35585748778000   -2.00985523104987   -0.42787415700438
O           0.40804971300756    0.15654784690087   -1.78691294830135
H          -0.50593389878923   -0.18221459033039   -1.85758950888115
H           0.26068892177832    1.28709623149239   -0.79128875876638
H           0.93105213533268   -0.57041787712394   -1.39439746110603
N           2.78796773196735    0.46455392255848    0.67828890279443
H           2.39820488280860   -0.44191459657805    0.42652592263139
H           2.93625713981369    0.99126516349399   -0.17351928810627
H           1.84830403487556    1.25510376378137    1.55153975229800
H           3.68097903265508    0.31824965904931    1.13051166723932
