    26
        -50.45479408  Gyration_radius:  2.47181090374 Dipole_moment: 5.885
 S          -1.25670332491110    1.36427309564451   -0.99220100551054
O          -0.61186283875370    1.77710097450456   -2.31557773101816
O          -2.57870088335027    1.87572830354747   -0.89133800835202
O          -1.13663473731417   -0.07496116865263   -0.84074927031778
O          -0.36886189338220    2.03301040081061    0.08381644152677
O          -0.69859741217249   -1.03705725926087    2.53937688593296
H          -0.86116621573524   -1.13695370549963    3.47834719695130
O           2.15572911871370   -1.40790462216016   -0.43243837098783
H           2.85047569291554   -2.03289006053266   -0.22100553018167
O          -2.80299824146647   -0.01212025893430    1.25588296957048
H          -1.51505654737623   -0.64380685820961    2.15487081700647
H          -2.37127449521377   -0.16530166735351    0.39788073801729
H          -3.20782578573914    0.85430898255203    1.16296552355582
O          -0.19041285691591   -2.41652114382490    0.11529635129086
H           1.29347213731918   -1.89257828614211   -0.30269660758505
H          -0.36153906955307   -2.20113426270691    1.04398886969281
H          -0.66331438875519   -1.73079302395754   -0.38433317380158
O           1.21002759789598    0.46658682318749    1.30466767510741
H           0.58745367196200   -0.06286162329185    1.84062601740760
H           1.62625386766699   -0.16231524333248    0.68234413006784
H           0.28421025885436    1.40102267928950    0.55635981885884
N           1.80715072376357    1.00885444301292   -2.04092201314447
H           0.38397176918233    1.44571709752483   -2.27218016946325
H           2.22790832266784    1.65757089489559   -1.38742718193805
H           1.85558470716901    0.07555576433712   -1.63644897734534
H           2.34271081253170    1.01746972455722   -2.89910540534061
