    26
        -50.45567458  Gyration_radius:  2.46076864713 Dipole_moment: 5.085
 S          -0.16028146400879    1.65941992587228    1.00408206293989
O           0.87708747793579    1.93919732558049   -0.10148799065400
O           0.65499220537857    1.75715145996491    2.29673603866612
O          -1.17806697779040    2.66512437686950    0.98810915605156
O          -0.64602451199132    0.31023973075604    0.84900810449142
O          -1.58405595413245   -0.32128056194198   -2.21770674973427
H          -1.84713891334884   -0.08891533303551   -3.10976832136069
O           1.38260103810853   -2.19475982667156   -0.01768935527613
H           1.70142410993974   -3.03212865253424   -0.35765915685753
O          -2.87037309557464    1.42527720006545   -0.67676874336724
H          -3.39847517422020    0.93370795259668   -0.04369894613428
H          -2.28793622604220    1.99412452612877   -0.13569019279273
H          -2.03205020098252    0.33232601756206   -1.62485141914117
O          -1.24542716465264   -2.11450994326759   -0.07178462723555
H          -1.20252691974472   -1.29557672393341    0.45139136843863
H          -1.48256719381163   -1.80643087681043   -0.95737401480622
H           0.39100511752897   -2.27031296687575    0.02966290640049
O           1.04554078596233   -0.03855999395375   -1.65028822682534
H           0.97213856311565    1.14470489207386   -0.75621078489462
H           1.25997994095162   -0.80217736809384   -1.07730179822776
H           0.10650537632110   -0.15878887573263   -1.90935040982622
N           2.36867537008236   -0.07809019927790    1.80695212825651
H           1.89931019179511   -0.82801630637832    1.30304693029559
H           3.04821236575072    0.34104697264205    1.18477078071736
H           1.37245387080305    1.00389520085453    2.19433330392775
H           2.85499738260777   -0.47666798243697    2.59953796695684
