    26
        -50.45567459  Gyration_radius:  2.46078491596 Dipole_moment: 5.086
 S           0.93833782045923    1.65799676781967   -0.39826710475329
O           1.23705813263602    2.28371298983228   -1.64999843717601
O           1.86810723322469    2.19582065682739    0.69328005572659
O          -0.46539463013426    2.07798422582750    0.08111345455314
O           1.00758392680597    0.21740794756927   -0.41469251813534
O          -0.41292403954756   -1.63397371308227    1.97184123742099
H          -0.81148021152778   -2.37196116094752    2.43545360753436
O          -1.52675858002650   -1.12434590432358   -1.98382721142291
H          -2.28210605366746   -1.12127679069140   -2.57406970586876
O          -1.90643330623871    0.04256773348069    0.42687860671519
H          -1.08411302644082    1.26394602501541    0.23426942986888
H          -1.82328099378127   -0.40059616953612   -0.44492315881301
H          -1.41501701493329   -0.52236327430155    1.05676941133505
O           0.43550484806171   -2.38231854744867   -0.40220520362184
H           0.88259657925584   -1.52210067447587   -0.48193581746150
H          -0.02547888209262   -2.00557128753321    1.13335841884743
H          -0.32539302218903   -2.29878615942663   -0.99336957835079
O           0.29855469232106    0.34609769323145   -3.24311764183566
H           0.58647061479573    1.14161454820994   -2.75341050993387
H           1.09139925245358   -0.18496389908329   -3.34630719959697
H          -0.84011218770860   -0.56119706119951   -2.42059202795973
N           0.88639171527840    0.93123972771541    2.68870917451455
H           0.60107744073214    0.00642154961108    2.37249242589892
H           1.55277964770610    1.69592582293045    1.55545655498564
H           0.05442379055140    1.44272765220063    2.95461502953003
H           1.47820627399785    0.82599129177531    3.50247870800522
