    26
        -50.45567456  Gyration_radius:  2.46076448043 Dipole_moment: 5.086
 S          -1.04568643066105   -0.75052133981343    1.45972225885018
O          -2.16512487957811   -1.64168884205246    1.44332061321603
O          -1.52701837147523    0.70617611267559    1.30803201410994
O          -0.37966955910506   -0.76851246185050    2.83855069851206
O          -0.05212789259384   -1.01498971443773    0.44815608161272
O          -1.05224461281622   -0.11859939439143   -2.53182709876538
H          -1.70276448887322    0.13169672519463   -3.18996759230568
O           2.22410292618023    1.26893525045039   -0.41315301373860
H           2.87988884663358    1.75748271620792   -0.91284855762276
O          -0.43943339262130    1.77211989434457   -0.69690828453436
H           0.52379183463715    1.67670236858113   -0.55366178037493
H          -0.66611089252999    1.12834665754231   -1.40225048310741
H          -1.09790884569028    1.17492959397558    0.49253298310383
O           1.51841580441786   -0.91396784475154   -1.69888089008354
H           2.07929038116945    0.41344946381828   -0.90139529940934
H           1.04286760681951   -1.19690431588125   -0.89887092816011
H           0.81063640750786   -0.64832826601842   -2.30217361452036
O          -2.20276613472743   -2.10970969516232   -1.19344194340184
H          -1.62292970764720   -2.87339663491251   -1.23645862044010
H          -2.32738764663697   -1.93769023618038   -0.23926844182537
H          -1.46823421067846   -0.84432062125366   -2.00298680503303
N           1.40476739882686    1.01708972360029    2.42371175926005
H           1.72888999098605    0.92833757056208    1.46260155813056
H           0.92875713568695    1.90579146423525    2.51381914109947
H           0.39882022717662   -0.07707199527757    2.74634287938013
H           2.20917852558474    1.01464381079441    3.03730335604850
