    26
        -50.45352283  Gyration_radius:  2.60000696654 Dipole_moment: 4.460
 S          -0.91930000958473    0.07465369995037   -0.29865128940113
O          -0.84548329140641   -1.34527910950940   -0.68469945035371
O          -0.86582296727404    0.20383775579138    1.15544483186652
O           0.12373237437646    0.85219435157604   -0.94703636720601
O          -2.29195844387710    0.57333519679517   -0.78850749009394
O           0.89354980634602   -1.16062029263196    2.44591562953483
H           0.45674981558597   -1.44654008878165    3.25103530647572
H           0.25666232513434   -0.54091719502912    1.99221665787757
O           2.70393321789394   -2.26756150809670   -1.12663202671381
H           2.18330911841974   -1.68198208388493   -1.75173261919007
H           3.05138175284045   -2.98906758612943   -1.65420324926749
O           1.06554452228601   -0.91915652284343   -2.63307289951502
H           0.84969896902367   -0.12754801027570   -2.09204902663437
H           0.25994744209659   -1.44526655034173   -2.58329969508589
O          -1.51845910293001    2.98138844259192   -1.06084742578535
H          -0.65700119283333    2.58714712268212   -1.26329989592000
H          -2.15196137971467    1.56147676308644   -0.95069522280700
H          -1.46739778436272    3.21987968614103   -0.10128078805533
O           0.81611741973818   -2.75122226768358    0.48160725172496
H           0.95584641334080   -2.19819719870584    1.34040208079052
H           0.04399912842256   -2.21058097985123   -0.02050601418081
H           1.65179030913993   -2.61094561616695   -0.11788503486717
N          -1.19939441756035    3.01575524408676    1.60272337002062
H          -1.96422925593141    3.20596063414583    2.23782235000925
H          -0.35969003518214    3.41557241709270    2.00245583888395
H          -1.07156472397261    2.00368367597316    1.56477516787893
