    26
        -50.45567460  Gyration_radius:  2.46069493321 Dipole_moment: 5.090
 S          -0.12611052214892    1.69069722769201    0.95614620915290
O           1.11928900260650    2.58148968906176    0.93410488883478
O          -0.26198860835438    1.03180047352453   -0.31969639422829
O           0.20467599793913    0.63015206915664    2.02505166327767
O          -1.26822983300799    2.45308051469929    1.35843357138905
O          -2.25530079198789   -1.55449485329224   -0.16725914865060
H          -2.93444633352700   -2.10365519955577    0.22785521907391
O           1.74941199205082   -1.47499947296451   -1.22234474444151
H           2.09102321018660   -2.25518796441848   -1.66165195509161
O          -3.13383558765564    0.93260189871281    0.18315888874149
H          -2.54833019885693   -0.61969610809574   -0.02724813151997
H          -2.54334838713111    1.49970848610915    0.71718348855399
H          -3.17823781978015    1.35714632989117   -0.67657608231396
O           0.18244451992740   -1.66908598554682    0.99938455694155
H           0.20529214056892   -0.32775019200889    1.63619538555134
H          -0.70780608397609   -1.68463273069072    0.58640894243661
H           0.81678747536726   -1.63081535743171    0.25538504237545
O          -0.55497932828993   -0.75871851857470   -2.26766944210506
H          -1.22859729994451   -1.27337398485036   -1.80211439090168
H          -0.49976873745078    0.06474609000682   -1.75277796894023
H           0.93714919837905   -1.20090917673848   -1.72860365641885
N           2.85198162271453    0.80222990138562    0.32040933931898
H           2.42124775547168    0.14592976865575   -0.32800809549534
H           3.72240844532221    1.12745328852328   -0.07979556101007
H           1.88597177303601    1.92859203549488    0.65370281446062
H           3.05329639854903    0.30769178125226    1.18032554101157
