    26
        -50.45731620  Gyration_radius:  2.4444637995 Dipole_moment: 6.859
 S           1.49212566795555   -0.08037503709041    1.33064485556545
O           1.83940957631474    1.17008249788818    1.96906671693140
O           0.33408573399669   -0.72352972623262    1.92645039848338
O           1.28056370324367    0.14751088556777   -0.12187181825349
O           2.70245082357737   -1.05779579252741    1.42755140268040
O          -1.80257214062106    1.98062294568958   -0.37695113352136
H          -2.61982798565702    2.41155867243371   -0.12333093959195
O          -1.11944118739601   -2.26725404594067   -1.33916592325039
H          -1.51036168088437   -2.85858297314809   -1.98316549994824
O           0.98008119350797   -2.87793720440254    0.49638844876950
H           2.35544600637528   -1.87232108042272    1.00999261110936
H           0.52452818654824   -2.38040103959873    1.19347775602437
H           0.40292500493584   -2.78345934124665   -0.27716855640690
O          -0.35465101307677    0.11780266508583   -2.24730890785134
H          -0.83276216510604   -1.45889858097818   -1.82498060943673
H          -0.98064654882694    0.77455465042194   -1.92221725889183
H           0.34487458551679    0.06696775663839   -1.56951075141805
O          -1.92372871696939   -0.40130543491478    0.61227228976830
H          -1.14777836474688   -0.49771722562395    1.20607065188859
H          -1.85874712235244    1.05241474364628    0.01344062194421
H          -1.82506948846695   -1.12218167706936   -0.03007750534830
N           0.73665919165837    2.59641149502438    0.11580018032112
H          -0.30929281886193    2.57286883179655    0.02065521432450
H           1.06391824007419    1.63373525767653   -0.25402657070468
H           1.16279117137709    3.38976048368512   -0.34999869530099
H           1.06502013788357    2.46746828364521    1.09796302211497
