    26
        -50.45567457  Gyration_radius:  2.46072225246 Dipole_moment: 5.085
 S          -0.14525668855228    1.24942749985169    1.48503081709865
O          -0.57444872766081    0.66239885913782    2.83276031487146
O          -0.30531212507898    2.67137007829174    1.49535723276298
O           1.34995808342507    0.88614748618908    1.39052932126123
O          -0.85164041690108    0.57289539117473    0.42503992698477
O          -0.08614226865434   -2.54751404597674   -0.47830197922817
H           0.00148551229778   -3.35034782481547   -0.99418305983111
O           0.56817009206024    1.01405753919786   -2.48618040955762
H           1.15302011571857    1.44749850063056   -3.10997855830829
O          -0.56664014510239    3.01431305084695   -1.14808963534432
H          -0.39651678510565    3.00591268840169   -0.18553782815239
H           0.15100774532411    1.73946833578535   -1.95786171356074
H          -1.51879321576643    2.92937001378987   -1.23471962051221
O           1.76426141852502   -0.55254244327412   -0.63349383456952
H           1.16664778098799   -1.32099740114784   -0.53466039453869
H           1.37019721141000   -0.00180152947265   -1.34391479363656
H           1.55544501177828    0.29349279404670    0.56852575196167
O          -1.50443307296555   -0.75959855413742   -1.78501009165888
H          -0.87766701868295   -0.28685999749000   -2.34995273695931
H          -0.71252091099261   -1.95854928207099   -0.98041347385858
H          -1.52733180576113   -0.22578693279590   -0.97216137760433
N           0.01058704293193   -1.78761684626557    2.38468416281840
H           1.01163727916074   -1.85781988262005    2.51696451715820
H          -0.19418531477490   -1.99272719238141    1.40862899969096
H          -0.44389418369158   -2.48227908737572    2.96300883242938
H          -0.39763460392143   -0.36191119751968    2.72392961027406
