    26
        -50.45489357  Gyration_radius:  2.432327407 Dipole_moment: 9.421
 S          -1.14229243975317    1.83056727547910   -0.33861292752976
O          -1.64643573612316    0.88582657969861    0.83762450059994
O          -1.08227054378314    0.99451212360195   -1.53061383054783
O          -2.02200147796052    2.94277734340098   -0.37304943746531
O           0.25878160448044    2.17106753084229    0.04001318418466
O           0.00610732022062   -1.93338964650582   -1.76754052490135
H           0.17097450946909   -2.34897391774990   -2.61466883563196
O           2.12326685848335   -0.57855470351413    1.63671898562503
H           2.86007021913417   -0.76568098528106    2.21906041928116
O          -2.49043482229913   -1.15487497143319   -1.60194948003785
H          -2.88881236346078   -1.21750488917463   -0.73103847882629
H          -2.12186421685115   -0.23785007532158   -1.66238867924907
H          -0.96151293809847   -1.68882607617724   -1.77409465979215
O          -0.40919588817301   -1.46773850920425    0.95989740199701
H          -0.28475064192714   -1.90002182558051    0.10547099554057
H           0.47617329493169   -1.34519295132940    1.33462098549381
H          -1.19024973459452    0.01224333032414    0.82618718874752
O           0.71906019091544    1.43926195379984    2.50292370045156
H           0.57160950160132    1.88510453428014    1.63478174918442
H          -0.16145891531092    1.20484056418571    2.80856729666770
H           1.64544032868105    0.20745326396848    2.03322821584434
N           1.53225840964090    0.19760915696160   -0.92572864849542
H           0.97201080974027    1.08688293241545   -0.59566374065098
H           1.96601072879640   -0.20035903231512   -0.07317032136697
H           0.86578765012099   -0.48921161624289   -1.34467766026566
H           2.23372829211732    0.47003261085917   -1.60589741885026
