    26
        -50.45734337  Gyration_radius:  2.52264379125 Dipole_moment: 7.776
 S          -0.65634462658853   -0.49876065649528   -1.75830313166118
O          -1.23456568027054   -1.15432507313869   -0.55601937625529
O          -0.64479421661150   -1.33227792162726   -2.90787837633620
O          -1.59524500483964    0.73999866225093   -2.01975137915807
O           0.65191863400369    0.05003212541052   -1.37755764255876
O           2.80070330463372   -1.25942434708625    1.24038828231817
H           3.10167366633960   -2.10124391860864    1.58707545730819
O          -1.00595864760977    1.71103701097946    1.79481849845321
H          -1.33488848171238    2.29016310912796    2.48315884956700
O           2.61967108236012   -1.65782585826991   -1.34881214320578
H           3.20847723462011   -1.43489776062231   -2.07136285504769
H           2.84536399765025   -1.34902451192606    0.25493068115102
H           1.83382871828079   -1.07109659836493   -1.45458424824153
O          -2.94176265835123    0.54278931808216    0.47967083603050
H          -1.80582338908055    1.32040822984937    1.34216294604202
H          -3.26974887524171    1.03422031163598   -0.27808253399528
H          -2.41755615275281   -0.19491787624214    0.08494789328695
O          -0.10326467003884    2.46571998636911   -0.74017711656596
H           0.50749846598451    1.72929211265326   -0.93380827916463
H          -1.12822733530306    1.51404371520452   -1.61788249490072
H          -0.32030920466461    2.38692665902804    0.20181994248321
N           0.19077983332397   -0.74742627157828    1.53707859705172
H           1.22985146526581   -0.88794268914346    1.41074359384535
H          -0.03453447538631    0.23607460606877    1.76547753918047
H          -0.33620717990699   -0.97315366309568    0.61375564454544
H          -0.16053579407509   -1.35838868046254    2.26819081582765
