    26
        -50.45489358  Gyration_radius:  2.43263313582 Dipole_moment: 9.421
 S           1.20907939830073    1.81603741138636   -0.10482246801796
O           1.78937046782288    3.11035387681687   -0.11357321664362
O           1.74583006292224    0.85399317318788    0.84897782525411
O          -0.32397761262727    2.00502131670532    0.27538282547334
O           1.17643732696731    1.15259754464647   -1.43949209618099
O          -1.53882799846477   -1.30445385993070   -1.85683378348091
H          -2.07861878367250   -1.74389674594638   -2.51449631933968
O           0.41285032633962   -1.79270700849038    1.86609084778702
H           0.89941840054342   -2.45657532873647    2.35617729461189
O          -1.63170189567453   -0.27237660283282    0.71006567045945
H          -0.76216540943163    1.14265059832434    0.46420383910066
H          -1.81771412790751   -0.70019088318929   -0.13944166613158
H          -1.14750498082064   -0.91890794770929    1.23923401349485
O           0.53324169468963    0.52047491261726    3.09135128516288
H           0.48772299656024   -0.95552369839285    2.40435022685859
H           1.11039980872769    0.79742994023936    2.33595838567889
H          -0.25495319143438    1.06456197853644    3.02876195031429
O          -1.24624680325598    1.22621028988203   -2.40904713304019
H          -1.68804574015950    1.81742935984742   -1.79343688628795
H          -0.28806420254355    1.30422362349052   -2.18578528257607
H          -1.46948409434469   -0.34784396714153   -2.14538934281810
N           0.98329036524287   -1.29190947255270   -0.78030837641497
H           1.15860692868903   -0.23581497063758   -1.04138113622423
H           1.74635493823405   -1.86075250397368   -1.13110062662778
H           0.91120503929355   -1.37917220185424    0.25819721641990
H           0.08349710601264   -1.55085882426608   -1.22364304680711
