    26
        -50.45489327  Gyration_radius:  2.4322296919 Dipole_moment: 9.414
 S          -1.22689712135785    1.78494564504804   -0.27852339874973
O          -2.11052291244672    2.89381386480478   -0.23790227997930
O          -1.40383245795275    1.00893299209063    1.09881249696970
O          -1.44691386841515    0.79888404800189   -1.32858991624545
O           0.21686845830368    2.15496895957750   -0.30748497648896
O          -0.39022320969600   -2.14649568338846   -1.45314189373288
H          -0.43227662632965   -2.66438508722034   -2.25781868478462
O           2.47050127097348   -0.38701672260659    1.12334439575895
H           3.33094130087678   -0.50690667901662    1.52618239028635
O           1.28500067360901    1.74600370737920    2.03908712551518
H           2.09010270286262    0.45058558131812    1.51963480702300
H           0.91968306853490    2.07652893277489    1.18389161848304
H           0.51142632820078    1.56505188603700    2.57995866421410
O          -0.13150428781397   -1.32632349424273    1.21129879981261
H          -0.21191279393537   -1.86796921578610    0.41607056488228
H           0.81604304739820   -1.16636374615599    1.33744643471264
H          -0.94958761114436    0.13438026240710    1.08641826443037
O          -2.78317533719066   -1.32506194019080   -0.77096783662972
H          -1.33403050414945   -1.89408733037780   -1.24900742259351
H          -2.95145764820204   -1.27040109304516    0.17232580269045
H          -2.46041462775338   -0.42773391096627   -1.03782326723656
N           1.25231244121047    0.05611483951191   -1.29317695833675
H           0.51717491107312   -0.67124692518139   -1.44250445464758
H           1.75951016092664    0.22867983145245   -2.15449954567011
H           0.77287069310501    0.98791514508311   -0.95320187505901
H           1.89031393929770   -0.23281386729107   -0.52982888463037
