    26
        -50.45489355  Gyration_radius:  2.43258257022 Dipole_moment: 9.422
 S          -1.75758011487517    0.49299468173451    1.20020170623832
O          -2.03543721504908   -0.55579822517547    0.22734296364077
O          -2.86643205708591    1.03860396580470    1.89643824707013
O          -0.66133698140889    0.00419257450014    2.08431866058257
O          -1.09784130458468    1.68814493970800    0.38368828928916
O          -0.19256988811655   -1.54713645936392   -2.10551888618425
H          -0.37193432466854   -2.35407322615685   -2.58955726313376
O           2.68749927187273    0.06100899551612    0.54537826783884
H           3.62233938714348    0.09420013971862    0.75030949940985
O          -2.23959115866354    0.08144482907418   -2.25455828797971
H          -2.37204022126437   -0.12929362479890   -1.29612973898032
H          -2.02558418582962    1.01645751632232   -2.28740000107423
H          -1.00212320235251   -0.97638935730294   -2.22915390159091
O           1.32772319901873    1.69442655693077    2.05447432870129
H           0.56201956420100    1.10066202249276    2.24222583551434
H           2.24107195040968    0.70491834958957    1.16933979405408
H           0.94681062270440    2.44112799387833    1.58434864111349
O           0.81962001527606    0.93461001853346   -1.30192055849232
H           1.62434967402389    0.73100785140332   -0.80171520881851
H           0.61354122108658    0.14472415532484   -1.81761812673018
H          -0.41995541450546    1.36409966425933   -0.25408317701201
N           0.52975194023363   -1.63097177665688    0.54917972102644
H           0.08825729151130   -1.62219938619497   -0.39770714463935
H           0.55755939203516   -2.57558996094247    0.91774730821529
H           1.47709478557003   -1.21391381030462    0.50516017009267
H          -0.05521226669152   -0.98725839788347    1.22520886185113
