    26
        -50.45734311  Gyration_radius:  2.52213114127 Dipole_moment: 7.767
 S          -1.17988096343528    1.33938666297548    0.75918348776411
O          -0.48415858848116    1.34147337706756   -0.53444874005497
O          -1.42051533275894    2.62516458722102    1.31175501887611
O          -2.55487384881769    0.60694730544563    0.51942442964083
O          -0.43169861557546    0.43317228998650    1.66941716013795
O           3.06414289260250    0.74741372320385   -1.01304114396669
H           3.90462321529080    0.96845833947196   -0.60783179966898
O          -0.41985767503618   -2.60113011127532   -0.47148510917689
H          -0.50423903595430   -3.54113290059006   -0.63476166873466
O           1.59973666497772    2.90014964349175   -0.66952230047251
H           0.76122526422268    2.39452928505624   -0.55051167412735
H           2.53961673303029    1.58752807072023   -1.00693355442040
H           1.38236590594267    3.62860589648166   -1.25308649575498
O          -1.71203472738673   -1.85325586901866    1.67629751197025
H          -0.94850117717636   -2.40457924076431    0.35262613552507
H          -1.24839277355055   -0.99465183435796    1.82688839749241
H          -2.62922695218225   -1.60657598695917    1.53060122265094
O          -1.84451263936348   -0.54547760743981   -1.71857193231170
H          -1.20820061219548    0.18856758136787   -1.62342282409702
H          -1.35612745228223   -1.34938836840050   -1.48225624022841
H          -2.45869743732536    0.14205302011170   -0.34855057910752
N           1.44898180484363   -0.80984010639528    0.44607211450909
H           2.05240401497867   -0.21155854066955   -0.18108871375216
H           0.92460873261056   -1.51886090762080   -0.09478220086865
H           2.01958361066430   -1.26835999042311    1.14992191043422
H           0.70362897233632   -0.19863829868954    0.94810760773802
