    26
        -50.45731623  Gyration_radius:  2.44447924697 Dipole_moment: 6.854
 S          -0.81928321254929    1.09490748610077    1.46129067010299
O          -0.19598210948817    1.27369762418805    0.12481383674505
O          -1.23283896686545   -0.28340912488362    1.65802914432667
O           0.08804083469939    1.56798860006644    2.48337944178346
O          -2.09211965039907    1.99459626751062    1.45135293795428
O          -1.46231456846808   -1.28098317702010   -2.10060980057575
H          -1.74854407799179   -1.63551147573062   -2.94301961488453
O           2.43905890056881   -1.16711281916390   -0.05092732646585
H           3.00869743396503   -1.89888773781661    0.18981006136266
O          -3.06590942468045    0.15530893281307   -0.22705677547642
H          -2.64604658714498   -0.31824408139961    0.50801935399164
H          -2.64764099128075    1.57422142369246    0.76379858090339
H          -2.62686600979754   -0.19708927574505   -1.01677157014964
O           0.02310189058213   -2.05204712197668    0.16656664450963
H          -0.43010129638632   -1.47275869977984    0.81697386182668
H          -0.51788945647660   -1.98108062380546   -0.63600417299765
H           1.49902458513328   -1.52148975249169    0.03706497135999
O           0.75378382445868    0.19699230493806   -2.14034443371800
H          -0.67546705365151   -0.71423877209915   -2.27753750565470
H           0.34437610667180    0.69522893998805   -1.40859946708637
H           1.46144753655680   -0.31799864074584   -1.73678682898932
N           2.17292354695770    1.26789666826820    0.98338089091891
H           2.47000386166266    0.29352032372073    0.72661198139456
H           1.27599128808557    1.43951270633479    0.40275250338780
H           1.72321478765101    1.32841938078101    1.92301921877033
H           2.90133880818673    1.95856065425586    0.84079340665920
