    26
        -50.45289446  Gyration_radius:  2.64831588167 Dipole_moment: 2.978
 S          -0.09845860334526    0.24275335364872   -0.77129990408690
O           1.08048254026547   -0.39348420675166   -0.04265016638111
O          -0.21868048482934   -0.34531065254920   -2.08330072437866
O          -1.32849242467596   -0.16927040444306    0.06070338893176
O           0.04894433309618    1.66664481604075   -0.73067218294027
O          -1.40331869999443   -2.63804205059494   -1.26875386516329
H          -1.95817031219150   -2.30236611106682   -0.56002441696351
H          -1.14458769205269   -1.85639216890461   -1.78633223852192
O           1.80930896611421   -1.88847729490133   -3.01952215917399
H           1.04655543698196   -1.29950494740678   -2.87679647310224
H           2.53138847495124   -1.33569027876286   -3.32109577732997
O          -1.12166964596874    2.20621265825251    3.12001212825665
H          -1.28113660820664    1.44601798722126    3.68133776137794
H          -0.19590541983803    2.11192496067020    2.76497708542346
O           1.15567198595279   -2.81108241196682   -0.59117101393232
H           1.57233302941402   -2.74255509881700   -1.47570397043972
H           1.13525597173270   -1.45025838713439   -0.22088666747692
H           0.20341735779752   -2.99591396779561   -0.77571156479954
O          -2.23992352345559    2.04399539203752    0.74785305252652
H          -1.93800108173123    2.17911680147983    1.68747308110652
H          -1.61425156697523    2.53034819705836    0.19585225670837
H          -1.79469864475284    0.70702201852023    0.38328514392814
N           1.22823940056334    1.82000806764335    1.90345160300020
H           1.62161315517520    0.89136606872029    2.00191266555831
H           1.97754541035132    2.48698202117928    2.04343553731829
H           0.92653864564131    1.89595561861692    0.93362743055948
