    26
        -50.45426022  Gyration_radius:  2.4827199989 Dipole_moment: 9.494
 S           0.60449623827991    1.87043863165538   -0.80538268297063
O           1.32312388334077    0.79481111993927   -1.55886334617525
O           0.83634111324653    3.17256876236005   -1.32374071265724
O          -0.78846664950913    1.45569946590957   -0.68721094738721
O           1.21328735433682    1.79833467368557    0.64976938489990
O          -2.39037475486933   -0.84190525427178    0.47037262302997
H          -3.00823585506119   -1.33578584482997    1.01101990482525
O           1.53573714793346   -2.19417814308299    0.62922865068145
H           2.03690945683779   -2.97584282449905    0.86346084631511
O          -3.15753717087281    1.68632781625341    0.32461379242374
H          -3.71395382526443    2.03565699515067   -0.37345083351222
H          -2.74732961220830    0.08039729522739    0.41006217215061
H          -2.23216870772581    1.81640412194064    0.01197729625467
O           3.12576128631417   -0.21494839870440    0.05352973112054
H           2.58919823464384    0.19688389941221   -0.66478250652812
H           3.14075364039527    0.45293352346524    0.74570390177776
H           2.20955837555223   -1.47812261022496    0.43113653952841
O          -0.03216463171597   -0.20075393988292    1.82071783371888
H           0.48847150608571   -0.98756309877266    1.60216212700948
H           0.69710385380166    1.11140772328737    1.13996812636501
H          -0.90407954884394   -0.32146137296245    1.40702398832309
N          -0.18478323827865   -1.21041632661958   -1.24115500008537
H          -1.04257209139461   -0.90318258090113   -0.75641299649638
H           0.43496368201451   -0.30800479409149   -1.44796950455725
H           0.37798942963111   -1.80804498904955   -0.60745200831924
H          -0.41202909667089   -1.69165384039401   -2.10432639973505
