    26
        -50.45426021  Gyration_radius:  2.48270528342 Dipole_moment: 9.493
 S           1.18632071342423    1.19463593453508    1.29561793492211
O           0.57754619340411    2.17841463871550    0.22098095229489
O          -0.00095293824917    0.71826577947303    2.07315248392354
O           1.70350972296344    0.04952622109565    0.55557696371986
O           2.12300338772743    1.91587488780361    2.08334775813214
O          -2.73068558355847   -0.01026752692902   -0.33264832669342
H          -3.67659237426534   -0.04094268999262   -0.47864786556787
O           0.75299880129679   -1.93105499355638   -1.53263100769069
H           0.68044218393059   -2.41880847848722   -2.35409716310692
O           3.21290255644027   -0.99292413600324   -1.26814705822472
H           3.91314134987119   -1.45498293554928   -0.80432431598300
H           1.69867423976203   -1.64437415661729   -1.46061326097039
H           2.78498816589452   -0.41860188799900   -0.59145467459252
O          -2.09310107105328    2.01514141773548    1.17334579704782
H          -2.56183549834633    0.79383166329066    0.24258266500770
H          -1.35424008147688    1.59535933771390    1.67469614398278
H          -1.66679741142682    2.71916114728565    0.67534517516605
O          -0.35969158138309    0.62554756707807   -1.68374556564341
H           0.29887391878350    1.62202925572673   -0.54807636099373
H           0.13219351843931   -0.21349782334578   -1.68415991046865
H          -1.26608098406233    0.41418215036859   -1.41604143913214
N          -0.67811846370963   -1.37631225005795    0.82826657615412
H          -0.80855460134732   -2.18379263940270    1.42765336553837
H          -1.56717409778831   -1.08581995733377    0.38033811829694
H          -0.32939202021300   -0.50060888834229    1.42215037934913
H           0.02862195494295   -1.56998163720496    0.10153263553255
