    26
        -50.45426021  Gyration_radius:  2.48277940386 Dipole_moment: 9.492
 S          -0.56572807747557    2.01262636924464    0.37757783491780
O           0.79014767297598    2.03058927731030   -0.25682362804713
O          -0.54793174657855    0.97435424640062    1.40131344151750
O          -1.01385004323266    3.29746579677317    0.78551445227484
O          -1.52241463199499    1.49153669994958   -0.76548635268137
O          -0.08135913887286   -2.01359303696776    1.60762922631654
H          -0.23113604553880   -2.94649463548508    1.76643639927740
O           1.16894169211930   -1.08040036286879   -2.24382193890473
H           1.57248397075872   -1.49339808662997   -3.00775475695433
O          -1.22035177639875   -1.12136383372959   -0.78057438538300
H          -0.47567490946173   -1.28765851666150   -1.37699136618922
H          -0.93957843819685   -1.41653042516432    0.10259168672368
H          -1.49440505225744    0.50329883422930   -0.73090976310540
O          -1.73680220682808   -0.57995872582093    3.09291384135089
H          -1.51824655744499   -0.24465738143977    3.96396826317719
H          -1.47914109061455    0.13438935057999    2.46502475783964
H          -0.68908823429690   -1.52503418107146    2.21889829656128
O           0.48107999072935    1.37344607438477   -2.77508649662569
H           0.67619182886381    1.77215323608470   -1.89393848799902
H           0.92443099626145   -0.14922114568606   -2.52504595691366
H          -0.47111692801790    1.47191874388143   -2.87004745774499
N           1.69676405104412   -0.26316840442395    0.30176635642500
H           2.62686463961842   -0.24762187419610    0.70548078805500
H           1.03109656762336   -0.73499091444677    0.93370906089097
H           1.32887433542574    0.77388768013002    0.12710224009549
H           1.68994913179069   -0.73157475437752   -0.62344605487389
