    26
        -50.45426019  Gyration_radius:  2.48285012018 Dipole_moment: 9.493
 S           0.23259336063135    2.01612440892813   -0.62830514052691
O           0.19014611755471    1.60697357582214    0.77064478968619
O           0.34760414517406    3.40989155943079   -0.87790052405043
O           1.29968619329404    1.20394752394082   -1.29384519819815
O          -1.11027244223783    1.50257605113598   -1.28117854768836
O           0.11312313631331   -2.30636061619498   -1.49586962356634
H           0.14268810263185   -3.13025963221916   -1.98302945575128
O          -0.28820919830377   -0.90642426583537    2.39613937500988
H          -0.68134373545013   -1.52971712986485    3.00844201477305
O          -0.93294806445920    1.56136065946374    3.10054693443832
H          -0.63879546799873    1.76457079964362    2.18243672034701
H          -0.51941765944589   -0.00287437910050    2.73048124005461
H          -0.39251106093465    2.11231150093367    3.66917380514818
O          -1.67729165472634   -0.73498890039840   -0.02032592597629
H          -1.28006020795527   -0.71226924865053    0.86716072914549
H          -1.39230127998173    0.70862506128437   -0.76281739751200
H          -1.21445465207932   -1.42880035232961   -0.51252928038134
O           0.13265104719073   -0.27109187700769   -3.11890064270295
H          -0.72613364521119    0.15873672560604   -3.17458622166439
H           0.67389302870764    0.34550764733394   -2.57083607270391
H           0.11417950459659   -1.57480448930224   -2.18198267693987
N           1.53771518558980   -0.78031148623490    0.25588927879875
H           1.13303766575512   -1.54901245966934   -0.31049040627093
H           1.48924039831664    0.13270641508284   -0.38070312466407
H           0.95130940019795   -0.61859422283670    1.08959114080302
H           2.49587178282996   -0.97782287896285    0.52279422039223
