    26
        -50.46954185  Gyration_radius:  2.39866459991 Dipole_moment: 4.982
 S          -0.49357091824386   -1.27538786595369    0.81287841172341
O          -0.25253137947245   -1.35730405353466   -0.64312282244788
O           0.80561600340765   -1.82938118151222    1.47641925820773
O          -0.62643213974926    0.12550582416930    1.21922266290669
O          -1.62201948896998   -2.07297609253491    1.20669419248150
O           2.43144881202160    1.29441943559373   -0.58423122981024
H           2.43048843624824    0.33985793593803   -0.85128864048488
H           3.24051071970676    1.67382919815713   -0.92965111276945
O           2.33351611819421   -1.29904119337689   -1.05359916858204
H           2.68396014066571   -1.84415958235695   -0.34512496363629
H           1.35642052333636   -1.40195883742294   -0.99684044168917
O          -0.24768207851555    2.10986278083147   -0.50044662225530
H           0.69522460447180    1.99834999152093   -0.69895615926359
H          -0.40243992383055    1.50814199946475    0.25837894000436
O          -3.36794245841609   -0.22173015612964    0.51367557767268
H          -2.64020609171239    0.25265334064661   -0.86911389140802
H          -2.85671776579954   -1.02051885207776    0.78166815602410
H          -3.17123402316261    0.42450163133101    1.19730905455070
O           1.88212747257234    0.47456113705591    1.99454349105437
H           0.94185120696352    0.71368425650938    2.02018963274979
H           1.34118202852509   -1.03191608555751    1.74456647956243
H           2.21681135950465    0.86187253509678    1.16465323423096
N          -1.88733521265568    0.38136709839165   -1.60079360179936
H          -2.25138209239682    0.37100388966069   -2.54657301371269
H          -1.21650981390313   -0.42209616394060   -1.39957568892938
H          -1.32315405879333    1.24685901008911   -1.37088172435294
