    26
        -50.45444096  Gyration_radius:  2.55419660464 Dipole_moment: 4.676
 S          -0.77617615890041   -0.34900259912192    1.13559071781707
O           0.57989835041182   -0.63695553248788    1.50627489322399
O          -1.73295995621854   -1.11068428851999    2.06172750795103
O          -1.10864941459085    1.05816056460888    1.14178105652900
O          -1.09779559328077   -0.93381397918258   -0.23610423702774
O           2.10559423636921    1.55945800436260   -0.92568419718414
H           2.45585210010922    2.34911566023134   -1.34057322450671
O           1.43287135059411   -2.07621937618509   -2.41159157585735
H           0.88467802572819   -2.80859418825856   -2.12548511420228
O           0.10719789213282    0.16633606776090   -2.09093503141708
H           0.80359596035314    0.73937179418335   -1.70023078075497
H           0.58914153170149   -0.64008446495647   -2.41874760231565
H          -0.60740873864094   -0.41314375627663   -1.05068390230555
O           2.63164893557840   -1.12135142012160   -0.23920098887221
H           1.96406781158559   -1.09706686132357    0.46641228464394
H           2.00538219097304   -1.84501626240798   -1.64024474660312
H           2.74560954406052   -0.19970877133708   -0.51056017634338
O           1.33225172478631    2.06278002941814    1.53726530941053
H           1.64572208569909    1.28139885737370    2.00456452213553
H           1.84090616129598    1.81778021895584   -0.00328352739056
H           0.37433173751654    1.90746326165471    1.43190719053363
N          -3.76371445631225    0.08448111027380    1.05196724130775
H          -4.01552324412797   -0.29751148071048    0.14997555303761
H          -3.14092510348591    0.87449526108050    0.90686072680324
H          -4.60198789923978    0.39761424732157    1.52352325685854
H          -2.65360908403972   -0.76930206624127    1.77547486454584
