    26
        -50.45444096  Gyration_radius:  2.55318119389 Dipole_moment: 4.672
 S          -0.72787110728788    0.01266745752746   -1.21935944673739
O          -1.41129131012377   -0.35037915382394    0.09524287527647
O          -1.82393953450972   -0.25897778887355   -2.25775116246021
O          -0.40186192644995    1.42136695287812   -1.21174956297734
O           0.39110805693568   -0.85102576115006   -1.46652804412990
O           0.10744611058264   -2.45461618580495    2.47493860833023
H          -0.67725825693855   -2.86939314550626    2.11309414998884
O           2.47243612907240    0.47809099046020    1.17427406627172
H           3.09239012483888    1.03604907105574    1.64616759137772
O           2.25758003825716    1.23568079194805   -1.33505950492357
H           2.44505486756881    0.81303967688141    0.23901084335988
H           2.23901900974867    0.38968215806118   -1.79458834687447
H           1.32452060207372    1.52240995734069   -1.32879169046111
O          -0.04327001069848    0.13792421371479    2.09334029676087
H           0.87100469757775    0.33513614787931    1.79108038333592
H          -0.82834285599126   -0.08472160072029    0.96995419922619
H          -0.00531024487716   -0.79254444262873    2.44368091952181
O           1.81994602616565   -2.16782776820306    0.46119110692467
H           2.30308375184005   -1.38871822791213    0.77039152872725
H           0.79816151713263   -2.51480619474241    1.77115563959799
H           1.31005124389148   -1.86144212719106   -0.30706676704049
N          -3.20843226027121    1.72352675475726   -1.40649299329849
H          -2.31900332122196    2.15882793398056   -1.17749802159318
H          -3.69048304806703    1.50266827264502   -0.54523250065631
H          -3.77178515654052    2.36929033060986   -1.94382627586851
H          -2.52295313281108    0.45809166688657   -2.04957788166360
