    26
        -50.45731595  Gyration_radius:  2.44440600241 Dipole_moment: 6.861
 S          -0.31716690668590    1.93139601671990    0.41568366676034
O           0.86396632102829    2.76147944132667    0.50541414750813
O          -1.48387069373997    2.61681834879460    1.18938081718160
O          -0.74816801914872    1.69751803493660   -0.95149738810332
O          -0.07382038812287    0.64646281383748    1.11994173154625
O          -2.05845563225126   -1.93421200625284   -0.45252626162593
H          -2.57803830253774   -2.73799926072201   -0.48523324685748
O           2.25218958986503   -1.16256102960581   -0.94117472749592
H           2.81840612111338   -1.38611223621772   -1.68101343578323
O          -2.99687129331822    0.70976607112059    0.08360631709080
H          -2.81556687886309   -0.24281822921453    0.08225670651302
H          -2.23293392049013    2.00583522008757    1.03531220624063
H          -2.42097795577602    1.06120187351007   -0.61341571110325
O           0.15100271128022   -2.02474224334475    1.03355807737054
H          -1.31657229932169   -2.09448660491282    0.17636894029651
H           0.90800663512471   -2.05847742042474    0.43797226899428
H          -0.01068397280369   -1.07663589651694    1.19562922427941
O          -0.06251292328972   -0.63658501689538   -1.95690155972573
H          -0.28225569051425    0.28293164171339   -1.69201081451906
H           1.35180909152158   -0.95845885689137   -1.34720948279684
H          -0.79678819675035   -1.16792765298721   -1.60946833292786
N           2.43446634071077    0.74671833856950    0.90055077760543
H           2.26122540803555    1.72391778944927    0.57705518902824
H           3.13931042829540    0.68209061272777    1.62644594733235
H           1.42664148765865    0.54587175164601    1.23855373051290
H           2.58765892898103    0.06900850954802    0.11272119267832
