    26
        -50.45731623  Gyration_radius:  2.44438412343 Dipole_moment: 6.853
 S          -0.40432109296568    1.35325753844958    1.41693558464738
O           0.02832594711538    1.29322473462562   -0.00278213552040
O          -0.99533203885561    0.09267933367779    1.83070028397198
O           0.71142400987246    1.75679372343880    2.24410329209950
O          -1.50562573470899    2.45504327030456    1.47082647415435
O          -1.94901539243017   -1.19969473397064   -1.71822581621403
H          -2.41234854807307   -1.57843221732499   -2.46601447313300
O           2.18868270710271   -1.57172105976823   -0.23741294932825
H           2.66524388640145   -2.36491779388996    0.01081942175578
O          -3.00250293703970    0.66122730049466    0.17159646388825
H          -2.55495465049293    0.19369903127797    0.89419350728353
H          -2.21933361994312    2.07317020744536    0.92037065158037
H          -2.74987993496428    0.16566816803193   -0.62287083876337
O          -0.27592741351525   -1.99930060630733    0.40376881741305
H          -0.52770243175302   -1.29174955951333    1.03616100233279
H          -0.91467234255273   -1.91128194702819   -0.32157163984009
H           1.22881142856211   -1.74750947991719    0.01663465463322
O           0.44188658459808   -0.14138748378221   -2.23035645840316
H          -1.11845111220215   -0.79829521940820   -2.06551079042197
H           0.23224854681108    0.48712496734093   -1.51456666863320
H           1.11211915103410   -0.73095121993220   -1.86695879652680
N           2.46982843421997    0.96044712813243    0.52409767054086
H           2.56740684745820   -0.07061647941874    0.34835300249387
H           1.53369690601459    1.22825152450984    0.05230490968928
H           2.18266897721513    1.18740173371499    1.50144007552786
H           3.26772383309156    1.49786912881180    0.20396473476281
