    26
        -50.45731618  Gyration_radius:  2.44441649321 Dipole_moment: 6.855
 S          -0.52521675566799    1.25812062043532    1.46521874536354
O          -0.02397353376917    1.29088622891888    0.06709326190100
O          -1.08372472710066   -0.04438334942821    1.78297148807052
O           0.53301223320169    1.65863736489720    2.36584990462673
O          -1.67156728271339    2.31272488107411    1.52160080197205
O          -1.81509814163987   -1.17869578164308   -1.87053662654115
H          -2.22725441705418   -1.53394006056195   -2.65871231366693
O           2.25898247598161   -1.47141027158465   -0.21546954513883
H           2.75560983054988   -2.25919611297462    0.00960494952331
O          -3.03204986557081    0.53648018802550    0.05918738151358
H          -2.60134217207595    0.04750419360014    0.77775011264689
H          -2.34248958824027    1.93379340640296    0.91777802279779
H          -2.72150165735508    0.09492949755592   -0.74654790525656
O          -0.21231588366786   -2.02693427882622    0.28617563687535
H          -0.52212127779184   -1.36450814287164    0.94132604396027
H          -0.81954989712584   -1.92456386180211   -0.46394546915646
H           1.29663179533234   -1.69741754560351   -0.01596590950987
O           0.55097456247532   -0.00239915042856   -2.21104228784884
H          -0.98651433570797   -0.72735305495152   -2.15576108873042
H           0.28267443234137    0.57814524223698   -1.47465365592257
H           1.22724449150888   -0.58438078222932   -1.84652672800039
N           2.40143551299448    1.02318670167258    0.69418582092920
H           2.54954707253202    0.00806217910363    0.46863578571442
H           1.47642453251694    1.27969181545480    0.19375898290991
H           2.06240523458337    1.18493666029669    1.66749937543151
H           3.18977736145913    1.60808341323124    0.44052525553077
