    26
        -50.45601900  Gyration_radius:  2.44967244109 Dipole_moment: 7.016
 S          -1.10128687145525    0.72821110737078    1.52686089438949
O          -0.40795530652085    1.31329292756429    0.35180371285607
O          -1.30891697669311   -0.69789937239485    1.35508617690473
O          -0.36760983594608    1.05214205093449    2.73178886342958
O          -2.49588711117086    1.42714482679586    1.57748744811916
O          -0.99473801982889   -1.24902511114214   -2.34668246512283
H          -1.33483744407610   -1.93974624425283   -2.91637097541983
O           2.55979172166708   -0.61288964532861   -0.16893516929287
H           3.36242739737955   -0.89409219509031   -0.61014345142058
O          -2.96965790406046   -0.06296243888056   -0.61993147712776
H          -2.53595451180103   -0.60837757505139    0.05617318069262
H          -2.91530844527033    1.13928920292591    0.74487307075813
H          -2.41673571392136   -0.17955150711775   -1.40652564327407
O           0.18480556622604   -2.25902917933695   -0.19160343355299
H          -0.37763274663963   -1.79959501992702    0.46393211913137
H          -0.59800643929423   -1.70646268759070   -1.56202267672274
H           1.06777862175451   -1.88465134836016   -0.07652816678027
O           0.96107050390938    0.58108074104320   -1.83651338885473
H           0.37903714202237   -0.04528648483748   -2.29813402711377
H           0.37556398396599    0.97254375028903   -1.16176469705633
H           1.98798192467666   -0.17656148337849   -0.87277301541307
N           1.85108465162636    1.39486023707794    1.46803601847948
H           2.33775804754841    0.57120530712648    1.05318203695352
H           1.00130620162733    1.57974394842824    0.82162439440547
H           1.29392351320283    1.16219808152030    2.32382231754866
H           2.46199803107162    2.19441812161074    1.59325836348482
