    26
        -50.45444101  Gyration_radius:  2.55374938032 Dipole_moment: 4.693
 S           1.28700312233808   -0.19199997235987   -0.56293382540067
O           1.53244831851353    0.33942452892204    0.74722839912600
O           0.89025656210030   -1.58246545294476   -0.57625864835107
O           0.23492435479562    0.63591844631099   -1.29392230143601
O           2.53490583139460   -0.00191701366083   -1.43460110782999
O          -1.66684783291279   -0.61953073540718    2.13393627857909
H          -2.35675383360716   -1.14212707992852    2.54531098544168
O          -1.81184593093966    2.95865625709911    0.38590405059176
H          -1.23197985641643    3.40747679492100   -0.23138623173472
O          -2.02811319313761    0.44081616794356   -0.32295408047990
H          -0.76519228854757    0.50484973060637   -0.89678586079719
H          -1.94420819712577   -0.00596787095922    0.54847957565569
H          -2.15144541996389    1.40475971145421   -0.10928625542270
O           0.59535301463502   -1.95843281506018    2.04932807233173
H          -0.84538025589329   -1.17874435238370    2.14130737836588
H           0.68286940454778   -2.04529143014692    1.08102252659894
H           1.23567084427900   -1.27781891888427    2.28170612964380
O          -0.25088755961129    1.81453145342615    2.20896831146839
H           0.50053478042120    1.42077591372218    1.73520882636387
H          -1.24480147037038    2.69196489628255    1.14977347284738
H          -0.81342096525047    1.06705994706980    2.45564729239169
N           1.50572767201594   -1.38763076732355   -3.32998587954188
H           1.02362735408707   -1.90356816814154   -2.59894149804531
H           2.29148259522720   -0.49154880070908   -2.29923348507754
H           1.97390514690058   -2.03672908061094   -3.94850741582645
H           0.82216779251961   -0.86246138925322   -3.85902469944512
