    26
        -50.45289442  Gyration_radius:  2.64826344545 Dipole_moment: 2.980
 S           0.59818348551522   -0.22087191521706    0.50748583623975
O          -0.70113202590617   -1.04807763286547    0.45651225778779
O           0.60580424541453    0.55150970624809   -0.80745640211281
O           0.52580066192147    0.71363834907905    1.59021107335170
O           1.71705527001420   -1.13157114510362    0.52923723767747
O           0.60141241698124   -3.00412228869135   -1.07483699554938
H           1.11667767825221   -2.56128208471625   -0.37900833355515
H          -0.31301982323813   -2.95601518680538   -0.78458265631680
O           3.65498385700185   -0.87190808235903   -1.35447213845403
H           3.10639931174428   -1.04239134448885   -0.56770905948237
H           4.23180116393226   -0.13929739330824   -1.13438309647950
O          -3.42391762742798    1.59563260394761    1.26005252762015
H          -2.64837623236906    2.08818980782560    0.87561107408178
H          -3.92904703314789    1.25480515924335    0.52041924978951
O          -1.92135692768505   -0.19886962096677    2.45434422048373
H          -1.17074511438862    0.33156472334157    2.75086050811475
H          -2.59241679729558    0.44888119295651    2.10453650914574
H          -1.28037323153504   -0.77023569636144    1.27897245429380
O           1.30352745898145   -0.97537951905038   -2.63320959609538
H           0.86849179256585   -0.07690388301305   -1.63651067712493
H           2.26968718954145   -0.95956393504794   -2.46912444862058
H           1.00310474790325   -1.84713784572162   -2.27994218712422
N          -1.17191998544960    2.64523033117592    0.27119881328549
H          -0.97110297954174    3.62643369402425    0.42223202041037
H          -0.98852661599263    2.44105322733217   -0.70422812703974
H          -0.49099486579896    2.10668877855370    0.80378993567222
