    26
        -50.45444105  Gyration_radius:  2.55372965966 Dipole_moment: 4.687
 S           0.55521348710061   -0.48255396872192    1.21223745240302
O          -0.26291790322777    0.63173251373588    1.59716998215400
O           1.80801576823221   -0.11422299614775    0.59116570107962
O           0.82521139450513   -1.36667666184214    2.43642049963595
O          -0.20896773362506   -1.41861608627499    0.28143260348283
O          -3.21648364579104   -0.45040930198513   -1.27896036690544
H          -3.37541551312892   -1.16440682190100   -0.65956238819026
O          -0.27736282190553    2.21386823603346   -1.65379065596170
H          -0.01142161740954    2.74906052248126   -2.40288401039537
O          -2.36169333720480    1.62420719132129    0.14731824115744
H          -1.81695275001570    2.06432718790133   -0.52016759964738
H          -3.07466878630678    0.36001204110707   -0.73192667646626
H          -1.73162804954643    1.28009221072791    0.80207574501544
O          -0.67620002315702   -0.44145928209823   -1.93856660482558
H          -1.66833290581405   -0.50142005185627   -1.89107742052685
H          -0.47545138781773    0.51962360923928   -1.89260319479055
H          -0.36439670951150   -1.00512928044225   -0.70862290166818
O           1.39990705504372    2.51212988676485    0.35009338008432
H           1.75991238830317    1.60537257244422    0.38108963101895
H           0.39044787442121    2.37877431032986   -0.93658857234287
H           0.80174309581884    2.55198120026267    1.10360229401889
N           2.47526189405746   -2.81342563635708    1.11125639660924
H           2.00295010540013   -3.46814221047911    0.50204612290454
H           1.48184119237041   -2.06479569202686    2.07874499839635
H           3.33769510668460   -3.22916341614871    1.43750893578819
H           2.68369384254310   -1.97076007609090    0.58258841797225
