    26
        -50.45590503  Gyration_radius:  2.44305929763 Dipole_moment: 7.042
 S           1.30780789964809   -1.12869889197836   -0.53098405249569
O           0.76142298295833   -0.86507303129987    0.92256902752439
O           0.89225265606628    0.07662470480784   -1.29580413932155
O           2.75090356330757   -1.13284337533321   -0.35896542654414
O           0.71259977440706   -2.33042138286728   -1.04555406521883
O           0.75699709458361    2.10596899392036    2.00463802060832
H           0.56421822477173    3.03486571346981    2.14367646270805
O          -2.91482333448144   -0.52119123650344   -0.51221306339135
H          -3.80415088893168   -0.77486211760890   -0.76291904246291
O          -1.25656462005281   -1.22510745532668   -2.40289646273278
H          -2.32595794559836   -0.80378699633594   -1.27040315876334
H          -0.68167931688137   -0.45886806900358   -2.52201489677177
H          -0.65468628302488   -1.87309287012915   -1.97924268372898
O          -0.96255933794019    1.42666363192560    0.08807919497553
H           0.03575751929790    1.76508178896804    1.42542173976650
H          -0.32786263306681    0.93735937101894   -0.47327650550176
H          -1.78756494225084    0.92892035072047    0.02237280229715
O          -1.63381813720223   -1.72721803668619    1.51158261447592
H          -1.82844945889253   -1.21582227941132    2.29971459439377
H          -2.17098362870556   -1.34336513161078    0.78433436957234
H          -0.10763412602410   -1.31016481590217    1.09699320325606
N           2.56900868355597    1.33164090721482    0.19344218201779
H           2.01561591728205    1.60370556962186    1.04687677094220
H           1.87857032398818    1.20256430968225   -0.59206292772128
H           3.31446537751455    1.98609145198348   -0.01862772295617
H           2.89711461566952    0.31102889666309    0.22526315507241
