    26
        -50.45601914  Gyration_radius:  2.44956729206 Dipole_moment: 7.013
 S          -0.39591328591128    1.36724154322398    1.43151561206992
O           0.05341474464494    1.41547449629767    0.01741293089327
O          -0.99588735212372    0.08377951074127    1.74624643321891
O           0.71040277666849    1.70372109305964    2.30194473949083
O          -1.49431717295599    2.46913539607814    1.55622418091152
O          -1.90734249925479   -1.36101491743056   -1.59911151458642
H          -2.55987844484152   -2.01624493256985   -1.84845713149722
O           2.16310811638229   -1.42131071833256   -0.50825457591923
H           2.70536756499478   -2.03863582073325   -1.00102569712996
O          -2.93939281426017    0.75149240174142    0.06126522107737
H          -2.48179979757389    0.26419945024469    0.76539320749975
H          -2.19425443622663    2.14919287685171    0.95642895189319
H          -2.68280584877422    0.28893478017796   -0.75011426523765
O          -0.44926333845583   -2.17876306579009    0.46476250822550
H          -0.66590076095051   -1.42820392564252    1.05378727465035
H          -1.42866540358295   -1.73061319060883   -0.81382693491024
H           0.49353249817207   -2.08954890087825    0.27426681863027
O           0.50504941346041   -0.18741101723293   -2.08678484114115
H          -0.32260943825966   -0.68235899833527   -2.20587416031534
H           0.25641389419560    0.51229222165899   -1.45446880301677
H           1.54190286298880   -0.99531816228078   -1.17560056116688
N           2.48322279546361    1.02183312712286    0.56060361209580
H           2.60801922951455    0.01484949791423    0.32090796051993
H           1.55634080175677    1.31641670101274    0.08179118922017
H           2.15824031042649    1.17941888840109    1.54343755062448
H           3.28301558450054    1.59144165530915    0.30753031389819
