    26
        -50.45601895  Gyration_radius:  2.44976275693 Dipole_moment: 7.016
 S           0.15373239141925    0.71524622558045    1.88295611101421
O           1.34740284948172    1.48151547968430    2.16916255106178
O          -0.45061711459152    1.19431395655150    0.61389440889265
O           0.39371315560306   -0.71547400541600    1.83970779006776
O          -0.91307405109214    1.00331472169311    2.98516456464864
O          -1.84601133561775   -1.95118694527553   -0.91141606463554
H          -2.22146414871075   -2.81600874532263   -1.07999806008939
O           1.66570417038516    0.08500869211725   -2.04462076729100
H           1.94347608064050   -0.05907269566746   -2.95017941399817
O          -2.24734233962620   -1.00293786792194    1.77557255668724
H          -1.31388792135173   -1.24948017412009    1.87862073980479
H          -1.66143607740288    0.43647776717020    2.71872434036522
H          -2.42224892808911   -1.13274551676015    0.83177644327030
O           0.75490960126516   -2.10519556630625   -0.39599750056559
H           0.71494792253124   -1.68544616179872    0.48689317745314
H          -0.88804653336501   -2.09989880505213   -0.70503024622215
H           1.25060367267056   -1.48811912227703   -0.94974512647205
O          -0.91132178672632    0.40770163813891   -1.91033509447096
H          -1.38139252124541   -0.43848838062311   -1.82595745892861
H          -0.92739449497357    0.76235002359030   -1.00197513253008
H           0.66478734378619    0.18648404448674   -2.06828403936435
N           1.70355769340152    2.12808336337887   -0.30181152223414
H           1.88796932910211    3.07177029761319   -0.62365748844771
H           2.05306810920147    1.94746457903484    0.66763537544523
H           0.65865697123704    1.92473069993435   -0.09130396446336
H           1.99170795206600    1.39959249756665   -0.98979617899851
