    26
        -50.44993712  Gyration_radius:  2.70494885382 Dipole_moment: 5.808
 S           1.74807943759439    0.67762367347177    0.76967803139691
O           2.83670116887034    1.57012109123811    1.37261379081631
O           0.49230862792968    0.92242971717608    1.44215505366923
O           1.62815821886365    1.23966824458596   -0.66897347428421
O           2.17479297576295   -0.68442489872181    0.74322955596381
O          -2.64061743692276   -0.55915182884788   -1.07588932257142
H          -3.57296381513774   -0.40411338018677   -1.22964278949958
O           0.27258940083980   -2.42588755665518   -0.10654656209504
H           1.13478537132893   -2.13625452157955    0.22866825469646
O          -1.78001028757702   -2.97766616745466   -1.87904832343119
H          -1.32636375277232   -2.89102051628198   -2.72046358086572
H          -1.08334687861148   -3.09390408260160   -1.21313629633022
H          -2.45983755945665   -1.48619281549642   -1.35967349791543
O          -1.39784197438368   -1.03353415099459    1.40054404661039
H          -0.37133705796623   -2.07969196502704    0.56194175855536
H          -0.77220490644565   -0.30870948504285    1.57130552552903
H          -1.96920994848903   -0.73034393367437    0.67767190301573
O           0.03884332580692   -0.37819446614113   -1.79460138557277
H          -0.88149016845815   -0.12840493331764   -1.61732165845013
H           1.01125689186539    0.62671767421053   -1.20863752777671
H           0.18759364618158   -1.19847661986610   -1.25859737110944
N           1.30945376494907    3.62417130589351    1.48341598584028
H           2.38858403606739    2.48872514277773    1.46021936875293
H           0.54560350474184    2.96095619173269    1.58222246136368
H           1.27401062001001    4.29686288237911    2.23750731333399
H           1.21246279545372    4.10869540845406    0.60135875030171
