    26
        -50.44752117  Gyration_radius:  2.67868125371 Dipole_moment: 7.971
 S           0.06416554472485   -1.50025996906310   -1.47302923998519
O           0.74216091787747   -2.11317658967595   -0.19942857133376
O           0.66764540227375   -0.16343037793600   -1.60608920348265
O           0.54656698431077   -2.37376020483689   -2.56313543955309
O          -1.35764718805611   -1.47972832694249   -1.31259519255156
O           0.35565503677359    2.07293109499267    2.02572002656418
H           0.72983230723846    2.85739828436130    2.42755508430318
O          -2.35416556609498    0.34248814199699    0.39066107148625
H          -2.30973050330557   -0.37587711554694   -0.26349158293006
O          -0.57768076154913    2.03961310718952   -0.62427278308959
H          -0.09876358495892    2.16899612239888    0.20982351689716
H          -0.11611019600038    1.31903397562765   -1.08892747121497
H          -1.87621908196278    1.08756534053429   -0.04824150701216
O          -2.13573927923890    1.51728132813022    2.87477839758440
H          -2.49249968064766    1.20935863620170    2.02475928583562
H          -2.09170699182033    0.73860149575846    3.43460398738352
H          -0.56039083468246    1.98852370313972    2.38262552490913
O          -0.22815300421739   -0.65983445941201    1.68145672759075
H          -1.07694912274075   -0.36562803936852    1.26875966946443
H           0.38451924094871   -1.61808446809494    0.60093360918651
H           0.28870960544461    0.15018565791646    1.79458052537406
N           2.78102797743261   -1.36432067127052   -2.39995745007478
H           2.20484134099635   -0.56681437739703   -2.02449008795070
H           3.30795076130707   -1.11971860866947   -3.23052371852738
H           3.37220354308921   -1.77070923923004   -1.68361751491434
H           1.83047712283697   -2.02063444078503   -2.59845766393124
