    26
        -50.45347343  Gyration_radius:  2.42462023654 Dipole_moment: 9.794
 S          -1.55696858082895    1.40253744519325    0.44450332299727
O          -0.83748567747106    1.25290053189505   -0.95899308484363
O          -1.40607439264802    2.79669970982855    0.76034127111364
O          -2.88242947929894    0.86891103347855    0.32369704016234
O          -0.74547080822597    0.56138634555924    1.37658280490450
O          -0.07193557033372   -2.80905306273745    0.09957915115134
H          -0.17396033540244   -3.76026535814659    0.14572255739024
O           2.02811287827370    0.70485657090346   -1.32976904795808
H           2.81436509023817    1.08699771402009   -1.72219026719762
O          -2.12858004260107   -1.64452686232719    1.16811384163974
H          -2.87551897167104   -1.30274418057707    0.66322388118842
H          -0.91086888688287   -2.42106883504920    0.49257236539744
H          -1.66937916811013   -0.81721825020579    1.43593188548687
O          -0.21291988353623   -1.06576129230527   -2.05190087587891
H          -0.14088493454042   -1.77897285926620   -1.39732305421005
H          -0.89099502922715    0.35466548938807   -1.34775506205959
H           0.64684541190918   -0.63058686912217   -2.09863034929821
O           1.14608757131106    2.71202325961367    0.18710615180299
H           1.26316033988204    3.59902474765043   -0.15942801942489
H           0.19617203382474    2.68166090773447    0.45750068322826
H           1.53948822409067    1.45837306894294   -0.90715392656161
N           1.41096347336729   -0.66907204654082    0.89065871497709
H           1.05516877603059   -1.61646453567817    0.67155223843507
H           1.84243481927726   -0.23072206340246    0.05065796464268
H           0.51871894321402   -0.06114399847667    1.12204055355023
H           2.04195420936877   -0.67243658028362    1.68335923938751
