    26
        -50.45347360  Gyration_radius:  2.4246160885 Dipole_moment: 9.794
 S           2.09408557943899    0.38400631168681   -0.23994272198258
O           2.94599272809554   -0.56637482817174    0.41366952240642
O           1.18708392555483   -0.40007492114137   -1.27548843795804
O           1.12879724731638    0.97020725777454    0.73955065686302
O           2.70236689929379    1.41844853919670   -1.03120130621383
O          -1.30974838092233   -1.44712636709264    2.02372027554047
H          -1.68481769073963   -1.96303133698610    2.73823893352811
O          -1.59447166559590    0.29547501633541   -1.93594183206162
H          -2.13914108081986    0.55557916520892   -2.68022541747866
O           0.38742978248297    2.07390581638764   -2.06133625237448
H           0.67134771560032    2.34162908317967   -2.93788218577073
H          -0.73883265730724    0.78822402572676   -2.03767212535336
H           1.22717665366756    1.83853479774976   -1.59680020445257
O           1.19113505726208   -0.95463349114558    2.50414582865337
H           1.92045919497616   -1.46754240776663    2.13719922589518
H           1.24840875516439   -0.12113985888014    1.98547337612434
H          -0.33927406992936   -1.32347208935976    2.25107141017951
O          -0.66354506800962   -2.14713481026184   -0.58019315848260
H          -0.97505670500689   -2.01792857967053    0.33006754923588
H          -1.19127692721623   -1.57352175055163   -1.14874780805120
H           0.72786961488412   -1.18111720316746   -0.90140144537296
N          -1.39931661470161    0.91064765405070    0.66834691407320
H          -1.68338556021623    0.72176270890260   -0.31522730606041
H          -0.29970378360189    1.00959435088656    0.64990130153358
H          -1.81681470867227    1.76116454844883    1.02728982768594
H          -1.59676824108993    0.09391837863881    1.27338536994642
