    26
        -50.45347337  Gyration_radius:  2.42452652885 Dipole_moment: 9.794
 S          -1.34553393479434    0.41779540329015    1.61336011473312
O          -0.33141222864183    1.30875054059719    0.97111378267649
O          -2.66604046775514    0.79077868332182    1.19700627975515
O          -1.03646781288887   -1.02366292446436    1.03324229930493
O          -1.08293071916099    0.28492763539063    3.02033914142115
O          -0.10758488375072    0.89053502285865   -2.66441482802529
H          -0.21507559784778    1.22353565927268   -3.55598050485630
O           1.60734832984892   -1.94405501558840    0.13323173324831
H           2.26666834700827   -2.61331755960156    0.32205965655910
O          -1.76973055410360    2.08072330296284   -1.06802562439321
H          -1.23600001949478    1.98225898804462   -0.24801155163958
H          -0.79929479485841    1.36038019723091   -2.10799335631539
H          -2.61732929924436    1.70780747147662   -0.79929604726617
O           1.21668102066945   -0.86974145955857    2.54207944326161
H           1.26865158728522   -1.63735804474995    1.01426842772543
H           0.37467834245264   -0.37022923076729    2.67547665733221
H           1.25812417987268   -1.46501379060640    3.29340120194280
O          -0.78575171681586   -1.55118781499523   -1.53954542627641
H          -1.21408779804474   -1.12099154544052    0.07416487980152
H          -0.55563432216702   -0.76482313571749   -2.06014044874251
H           0.03904915217609   -1.93414479732542   -1.21738765097132
N           1.58352619846907    0.65175483862442   -0.54590991514230
H           1.15980763204189    0.80235271780082   -1.47858635599393
H           0.80164884309205    0.92422119651881    0.18475888876945
H           1.78116256648685   -0.35785220746023   -0.38626712372719
H           2.40552795009066    1.22655587885292   -0.40294366331559
