    26
        -50.45347328  Gyration_radius:  2.42440643121 Dipole_moment: 9.795
 S           0.76418481472498    1.12484456308890    1.65500391835298
O           1.43448201326280    0.06689903594458    0.83880866051331
O           0.74068598703175    0.75337278045019    3.04339744428470
O           1.27292141649629    2.41826646945601    1.30219115297399
O          -0.75814162556955    1.06080228066585    1.22074312455211
O          -2.12546266865658   -1.34547744061902    0.22854445362395
H          -2.85831094310138   -1.92535186165884    0.44065827623174
O           0.61907638450088    0.23661899822517   -2.73190499990344
H           0.86994938434500    0.38264852135833   -3.64467417372636
O          -0.76462641256324   -1.32348823239127    2.52127804377868
H          -0.14226021120594   -0.56913560601268    2.66187242788394
H          -1.27852155449529   -1.35791900684546    3.33078443643953
H          -1.68557262687992   -1.13297445683186    1.09249628240691
O           2.18723633867914    1.57407651595199   -1.15724467594311
H           2.09950859337244    0.98438604298586   -0.37519689863727
H           1.23565921394528    0.80644956604328   -2.18058924765177
H           1.96554377376624    2.43459874889165   -0.78306461376969
O          -1.57584600545282    1.12049731887040   -1.28686728764816
H          -0.92736417687450    1.33815648592214    0.29588892784668
H          -0.88653316516466    0.83892350263624   -1.90972703997141
H          -2.03496494294132    0.32642447492250   -0.98785763268707
N           0.36473731797592   -1.59758968918832   -0.73794928614713
H           0.47690937489218   -1.11296822464958   -1.64604677108673
H           0.83072456292792   -2.49718355455264   -0.72557655000367
H           0.81690534177029   -0.92890677098534    0.01528717064896
H          -0.64092015481767   -1.67597046159030   -0.48025511222598
