    26
        -50.45297788  Gyration_radius:  2.42840999862 Dipole_moment: 6.845
 S           0.00496322874670    2.00941200338554   -0.59408887608280
O           0.40075553430766    0.48033893971860   -0.82644270407511
O           1.28061784588931    2.70876867127514   -0.67383069917838
O          -0.98548934506356    2.34677139370517   -1.57622068702040
O          -0.50160767510901    2.02734767834003    0.79190179716628
O          -2.09026642359265   -1.77856588375623   -0.55570107958680
H          -2.63296004769217   -2.56519166058122   -0.48847967152932
O           1.34365306367163   -1.19253513071166    1.46293957681782
H           1.50263759184224   -1.83618632083166    2.15515835029430
O          -1.36296321765182   -0.07312299091621   -2.63816567869659
H          -1.53027912506165    0.87975809805483   -2.52360701082146
H          -0.17448758798455    0.15787761053888   -1.57007873342685
H          -1.97461644376046   -0.54678626117068   -2.05405668715972
O           0.48421266921030   -2.41177112760611   -0.90225160750524
H           0.90043936070398   -1.95235993563747   -0.15029015113870
H          -1.16467276281205   -2.08930540559326   -0.71510210894815
H           0.73692054418493   -1.91374677613810   -1.68283025355814
O          -1.11940796960666   -0.41571227879356    1.64116937326231
H          -1.04243140315727    0.52114880309757    1.36450207173674
H          -1.60653100553999   -0.85584837519182    0.92211545968791
H           0.37497958296320   -0.92009211698889    1.55070282053634
N           1.88509908756707    1.47044219804008    1.45042137294427
H           1.93304707443556    0.43189362720268    1.38202752311722
H           1.99509608375662    1.94891369601033    0.49613415007099
H           0.85437373458923    1.71985599555045    1.56196259915513
H           2.48891759516325    1.84869552899708    2.17211085393585
