    26
        -50.46116097  Gyration_radius:  2.4526521655 Dipole_moment: 8.896
 S           1.65086735618704   -0.95225619715907    0.94524099835829
O           2.10098159223336   -0.83455238566514    2.43733542258961
O           1.28323929765100    0.39776770162335    0.50587911839730
O           2.71169185284004   -1.52259577397102    0.17570220475626
O           0.42881119668139   -1.79564362906155    0.94006791502312
O          -2.26397672787890    1.08236289598897    0.96846651868809
H          -3.01510853674388    1.64938334503901    1.14521027095866
O          -0.28194181632831    0.30844178023048   -2.66020529752158
H          -0.34867440410122    0.19098535761161   -3.60857388213911
O          -0.40169774570790    2.21355764020790   -0.44707360987040
H           0.31505963270808    1.70868354418228   -0.01504071275414
H          -0.41974563496609    1.88269170438913   -1.35348970947484
H          -1.58527261673626    1.63928230282793    0.49123157586989
O          -0.51395547515977   -0.25398692873293    2.89803469340754
H          -1.06296670458631    0.38238898581756    2.42200433930778
H          -0.37843674134776   -0.99138021192969    2.28042246030173
H           1.32485295302129   -0.45553394342153    2.88102061713232
O           2.21386768743756    0.17057114627031   -1.93192726195002
H           2.68675845734356   -0.65786801440519   -1.79061126711370
H           2.00977521970899    0.44679670765447   -1.01351115648578
H           0.69252184781150    0.24612289441171   -2.44188790201151
N          -1.45235886705998   -0.97749894271681   -0.58371368962630
H          -1.05261939721893   -0.52353187133910   -1.43503065709037
H          -0.62639510993906   -1.35520001915951    0.02328097341947
H          -1.93835859544788   -0.26073523565030   -0.00440335123859
H          -2.07691874040344   -1.73825285304324   -0.82842858093495
