    26
        -50.45479390  Gyration_radius:  2.47182668279 Dipole_moment: 5.876
 S           0.90514084721702    1.82349895073120    0.52643879328144
O          -0.43525095311269    1.27456259626156    0.42353874604727
O           1.87281501169122    0.85895802501371   -0.19911313742217
O           1.06550255717040    3.13276041897418   -0.00260175627810
O           1.35102031243081    1.76759905810267    1.98786943706488
O          -0.95452235490827   -0.44363767236719   -2.62822682274272
H          -1.00665700139932   -0.61789417031942   -3.56894930049678
O          -0.83920939270576   -2.20709249037168    1.11293957278557
H          -1.24291131051187   -3.07557673472432    1.14007919409921
O          -2.36507629299964   -0.51892147283506   -0.16972378013194
H          -2.12087105402223   -0.59687174591709   -1.10374493671407
H          -1.51603644105128   -1.59561737778668    0.70915573575815
H          -1.86942810470369    0.25387573506623    0.14742206314719
O           0.87444151233897   -1.38351578589294   -0.83936037702381
H           0.32148972247159   -1.73695524182220   -0.11449059418008
H           0.25169044870050   -1.12862095187127   -1.54819180940405
H           1.47232129901286   -0.05426494298070   -0.43404454468376
O          -0.62536963993313    2.15248430409387   -2.10077638065275
H           0.09537859125004    2.78624360349118   -2.14675983133098
H          -0.82143701451555    0.52689501429909   -2.53100155468213
H          -0.73475162523446    1.98664557326811   -1.14870562765620
N           1.25528510815188   -0.72786193389696    2.51919564016208
H           0.40458297163726   -1.15174126300339    2.15368447126829
H           2.04455763369828   -1.14001626834351    2.03733614276756
H           1.29086274194191    0.75878626516067    2.27307970981055
H           1.32643241737504   -0.94372150233085    3.50495095721044
