    26
        -50.46116091  Gyration_radius:  2.45260403134 Dipole_moment: 8.893
 S           1.82051917755852   -0.90793293705324    0.62062531821043
O           1.93187339915646    0.56713500702911    0.49215446008322
O           0.40508828685971   -1.27589432841558    0.51215509316014
O           2.65303026359475   -1.60210275847199   -0.31098851798306
O           2.26848723873929   -1.26073788702864    2.07585828177689
O          -1.81033829173574    1.50199383663703    1.30424463622542
H          -2.61743759786132    1.88853435397396    1.64511238105390
O          -0.98268882531068   -0.07913301552808   -2.50604100068527
H          -1.12205465284829   -0.02350968930092   -3.45215922050199
O          -2.16254712211585   -0.76248874495053    0.07956231880040
H          -2.05233334185354    0.60851992239032    0.92780987444477
H          -2.09234157659024   -0.64377603276476   -0.87559477702227
H          -1.28992998817677   -1.11048894124468    0.34915205007279
O           0.51808105920533   -2.13541042987897   -1.95957511517878
H           0.38720130954266   -2.03224608449242   -0.99337754111396
H           1.47959904465992   -2.13241053358237   -2.03225790388368
H          -0.40450250202165   -0.88232268436035   -2.35879474828395
O           0.59862119048960    0.76077500556026    2.79115593496306
H          -0.31174118409673    0.89582773329591    2.49770354588920
H           1.66575949734882   -0.74134116518472    2.63253993594947
H           1.15176958144652    0.96384432271776    2.01895232936240
N          -0.01662735084792    1.70260462583170   -0.70940960276025
H           0.84087178815121    1.20910956095926   -0.24627883240692
H          -0.39021919534255    1.07691537610238   -1.45747529659906
H          -0.73211782826253    1.81250638864710    0.03984949966278
H           0.26397763031033    2.60202908911295   -1.08492311323682
