    26
        -50.45731592  Gyration_radius:  2.44434579774 Dipole_moment: 6.861
 S          -0.23227442657418    1.98542360794512    0.08167514397402
O           0.97153597161225    2.77036742699317   -0.08239925449697
O          -1.30693826475450    2.84461273141389    0.81416263302398
O          -0.79154464909715    1.52753140930281   -1.17817906088389
O           0.04354477028056    0.83908308126097    0.98497454126370
O          -2.13637791600267   -1.90044433907309    0.08508051664353
H          -2.67569066776803   -2.67576098758141    0.24371934484437
O           2.12929794878618   -1.40089177115363   -0.90207718286771
H           2.62031062087614   -1.77586319665083   -1.63435099974472
O          -2.95927987323440    0.83187057750573    0.20800322791189
H          -2.44139643233183    1.02929011607838   -0.58809059535591
H          -2.80132018894530   -0.11190057104982    0.36490659165180
H          -2.08121548087792    2.24631145404629    0.83855690762412
O           0.19662461933048   -1.81068871562521    1.36875497061101
H           0.07272597423728   -0.84324082440952    1.36804750175182
H          -1.34446999372269   -1.97466348022922    0.66724565577780
H           0.89518303721311   -1.98107523955620    0.72697236357745
O          -0.25539322642494   -0.97454650190118   -1.79534621549314
H          -0.42830546938383   -0.01439389651656   -1.68505025295384
H           1.20069840860031   -1.23757716243108   -1.26012426917089
H          -0.96726398626098   -1.40512080031529   -1.29534284515804
N           2.52334601600556    0.79877917637846    0.53884210239894
H           2.58815953814410   -0.01483797821076   -0.12247576719200
H           2.34449245688138    1.70816924124197    0.05854498492150
H           1.54602654635663    0.70197362470261    0.99225689251883
H           3.28952465705473    0.83759301783388    1.20169307482285
