    26
        -50.45479413  Gyration_radius:  2.4717249597 Dipole_moment: 5.882
 S           1.74122722536962   -0.74987708784033    0.91250632525767
O           1.44718938200128    0.72122861413915    1.29061119835330
O           2.11809339878220   -1.46639905868443    2.08045545945069
O           0.58112177868527   -1.27285262480500    0.21306372435743
O           2.90914418498158   -0.65515411940294   -0.06975144614284
O          -2.44817645855029    0.11493204258452    1.41471217728169
H          -3.15066051414530    0.36572985983168    2.01615476149667
O          -0.85189680267374    0.77160206746424   -2.34527660874226
H          -1.49099157019757    1.09721963611445   -2.98050871682821
O          -1.83227413791499   -1.24035900324125   -0.99863880414190
H          -2.29818240058913   -0.85222794840392   -0.24337521060057
H          -1.24694121263316   -0.05371771089883   -1.94799610772609
H          -0.96527002763197   -1.49676872909657   -0.64370873593250
O          -0.71105570884412   -1.57037812657868    2.54132368869377
H           0.00639978562539   -1.50943054905468    3.17751974851784
H          -1.85461093758010   -0.49003194973122    1.91545643608282
H          -0.26151144369925   -1.69901426054405    1.68853499535038
O          -0.61292435233125    1.72116772715986    0.19798466099798
H          -1.33097291818752    1.23873448836634    0.65274394367508
H           0.62869196920304    1.12780086698308    0.82790672302146
H          -0.67118144019867    1.45923542684963   -0.74230679331778
N           2.02657168545833    0.93876196511360   -1.85816668997148
H           1.06873084794075    0.71042491143715   -2.11771630713721
H           2.02662715637248    1.85615574327035   -1.42989338154702
H           2.58259355841067   -0.03772082202650   -0.85406074706148
H           2.59025895236265    0.97093865101148   -2.69757429339715
