    26
        -50.45313274  Gyration_radius:  2.57391689161 Dipole_moment: 5.682
 S          -1.45593091944654    0.56838125713618   -1.50864610480703
O          -2.53032207837652    1.10665991539941   -2.25171052884515
O          -0.94917973079703   -0.71538845608247   -2.21136041245501
O          -0.25492823406807    1.53064068973756   -1.52530833672386
O          -1.73388087010422    0.22582067468522   -0.12452477813868
O           1.46265645604582    0.86245940345901    0.22063161690463
H           0.44013349636968    1.24551819001841   -0.82826998765725
O          -0.08827146149222   -2.77145208095386    1.08452026900697
H           0.00160954715305   -3.67524322028059    1.38872949875755
O          -2.34151694358343   -2.35463516655695   -0.23557442049839
H          -2.27002879670201   -2.50439605484108   -1.18178965956031
H          -0.97859618266187   -2.70268902073576    0.65421378981535
H          -2.30515068060468   -1.38314662685251   -0.12475136755056
O           1.13298830399214   -1.54348260644653   -1.00244709171565
H           0.80716310014868   -2.05749367386033   -0.23535360688038
H          -0.09898041390479   -1.06606638890047   -1.76933655378548
H           1.54813972656754   -0.74692206761709   -0.63540175345501
O          -0.14950753965654   -0.12876767401332    2.02610500185238
H          -0.05559460314422   -1.09134001998613    1.96232173482377
H           0.93360954977109    0.53837647319972    1.00140480213394
H          -0.90542520012658    0.08485883759644    1.45193993807520
N           1.99798721074835    3.43788479113893    0.80831524656476
H           1.40211063023406    3.89446420170646    0.12825007587989
H           2.93487347283358    3.80589515924175    0.70456522742152
H           1.66277968795544    3.68013379777382    1.73240094330926
H           1.79326247284789    1.75992966603600    0.47107644752570
