    26
        -50.46062684  Gyration_radius:  2.58264058042 Dipole_moment: 4.419
 S          -0.58830171753190   -0.59488208092312   -0.13206973282186
O           0.79918426059238   -0.98556716211317   -0.34813492758898
O          -1.41241934677729   -0.83496757272953   -1.29219737197231
O          -1.10473565934333   -1.40692486401787    1.07536202807735
O          -0.63033178502138    0.84115590313887    0.26014433927375
O          -0.50944823621978    0.22128920297912    4.12252503979842
H          -0.46702670810040   -0.66707775458102    4.48036307319508
H           0.23735536583566    0.30033477687253    3.49301585599249
O           1.62018378167868   -1.60980417056017   -2.78241455826361
H           1.36389127958834   -1.45022196354393   -1.84593377143042
H           1.49416183114770   -2.54831793668543   -2.92915209734286
O           1.25946468356499    0.32532714517665    2.06397484335667
H           1.52108548045215   -0.48376844185431    1.61140556303445
H           0.57966575975680    0.70129904145345    1.47631028223631
O          -0.24684225557980    0.18144504383425   -3.40314579934556
H           0.43475814950090   -0.51997673695407   -3.49495823815392
H          -0.88134728540035   -0.20001377571456   -2.74847902861526
H           0.46234569962109    1.08571664779664   -2.50500983521152
O          -2.45116244742073    0.37916964814543    2.28667067125418
H          -1.87292404550001    0.42441717723591    3.08442685668740
H          -2.09811545444363    1.02876095400659    1.66525110535687
H          -1.76532795487645   -0.81848418840265    1.56823694973260
N           0.96977011282926    1.58031224347088   -1.64322316313270
H           0.30091666731976    1.42654206263849   -0.82288748562891
H           1.16382179081313    2.56422866604130   -1.80094246951277
H           1.82137802351760    1.06000814529190   -1.43913813897482
