    26
        -50.45313268  Gyration_radius:  2.57368066449 Dipole_moment: 5.674
 S          -1.40060388258770    1.19917056679998    1.14697262422869
O          -1.73810568809387    1.79433346641843   -0.24247091835364
O          -2.27905247208034    1.74699184869895    2.10842606377287
O          -1.40765656024319   -0.24745265945610    1.01386166755394
O           0.04676759282153    1.64087913049277    1.42720045566687
O          -1.01461439508971   -1.48774898396727   -2.37165021817308
H          -1.25807419451486   -1.89740641430639   -3.20251387817647
O           1.69160849842789    0.25846426644742    0.07510232083324
H           0.70308914046974    1.08836345699528    0.86669810476891
O          -3.10948504568192   -0.67730912691229   -0.97580364863477
H          -1.86020406862984   -1.26956605452325   -1.90273890869870
H          -2.61305735305212   -0.62628647820546   -0.13415248501351
H          -3.37751947179829    0.22521467965343   -1.16677453733853
O           0.37577659013301   -2.00116111839419    0.01103847814483
H           0.00740291369736   -2.06568322620570   -0.88313692976609
H           1.31240970637633   -0.66376053976874    0.06024836161183
H          -0.33033849505766   -1.59186712263316    0.54070770737470
O          -0.00306063369335    0.98802740507033   -1.92232395714115
H          -1.04947818894905    1.51282430433736   -0.94084673469300
H           0.80779168325111    0.85364102934309   -1.40658872239742
H          -0.29820256585934    0.09682688083536   -2.20073864723042
N           3.45838717005673    0.21473235749418    2.10997934685304
H           3.53681710255384   -0.71269665668173    2.50824940310040
H           2.44298594336260    0.23218252193917    0.71711584202701
H           2.96521574981078    0.80067817885560    2.77290132354322
H           4.39120091437175    0.58860828767550    1.99123788613867
