    26
        -50.45479413  Gyration_radius:  2.47167276923 Dipole_moment: 5.885
 S          -0.36865721501642    1.66732781357118    1.22956778682103
O           0.95909076783630    2.33770176182712    1.58376541676690
O          -0.37216303265551    1.35322715577751   -0.18811059494650
O          -0.33816759699326    0.33391636862674    2.01351783367359
O          -1.46687511171502    2.44890649389133    1.67958121624162
O          -2.12237351751872   -1.64565738892703   -0.89051868459142
H          -2.83091318732862   -2.28942799922264   -0.93071073622855
O           1.95591782404868   -1.10741994334502   -1.33064496753626
H           2.36748458351313   -1.75467703590453   -1.90478603109115
O          -2.97831372367668    0.74390340352506   -0.06293213410444
H          -2.52451013051841   -0.80795498664799   -0.56560542192585
H          -3.23630588897947    1.14024999585427    0.77344439328781
H          -2.10937737887744    1.13684563620947   -0.25356714485652
O           0.14902591947797   -1.72537773776734    0.61374651976808
H          -0.11623666296698   -0.49094766354455    1.44833676402598
H          -0.67409438676050   -1.80795959324354    0.09344216763051
H           0.85720141245569   -1.54700227532986   -0.03646383457864
O          -0.23257571331617   -0.17567305090955   -2.41004661789040
H          -0.93982644165514   -0.77936088439567   -2.13897465484879
H          -0.29176053718949    0.56467944361917   -1.78413517746957
H           1.19532329866310   -0.71893626980365   -1.84594304963979
N           2.68545465386028    0.56543525703386    0.95380099914281
H           2.47181206418253    0.14440416194029    0.05159032004170
H           3.63791594767616    0.90572251629552    0.93457334393356
H           1.71272009334128    1.66161374747721    1.30448864113719
H           2.61020399012980   -0.15353893661845    1.66258366722990
