    26
        -50.46137981  Gyration_radius:  2.45093645415 Dipole_moment: 9.010
 S          -0.56756129153208    1.01628618840331    1.83381708210159
O          -1.84177813223229    1.65928785948099    1.94208739623003
O           0.21069319280834    1.48188408405783    0.66635961533424
O           0.27580053744877    1.34877747314417    3.10799391653749
O          -0.67346632803971   -0.45003888430271    1.78834880434018
O          -1.58837727996845   -0.24186785583527   -2.15205817044038
H          -2.24818445013124   -0.29297628295816   -2.84458145686319
O           2.11194146624490   -1.65636671505378   -0.63909395793137
H           2.87467795770628   -1.99812447058969   -1.10649747304763
O          -2.01138081034072    1.89197712504430   -0.72124322657295
H          -1.81691537093932    0.57024200901965   -1.61355554805465
H          -1.10242411127015    2.01073189659854   -0.38922980921484
H          -2.51024002327601    1.86143429188776    0.10836046067709
O           2.28316506274841    0.16510746704808    1.70184954348705
H           2.33178380073910   -0.66332898746034    1.21100033376331
H           1.71494492706731    0.74674913482258    1.16984336954990
H           1.11344027530551    0.88428976158125    2.95835291598811
O           1.12329219139535    0.53137659148313   -1.68262148929044
H           1.88057852517355   -0.78835898887291   -1.06856340549993
H           0.28814398843748    0.33771298740405   -2.12830881392341
H           0.87187413418027    1.00597563859272   -0.86758931753481
N          -0.55121242678891   -1.91298119910799   -0.27615295475972
H          -0.99595218703607   -1.39398459714865   -1.05913237299007
H           0.46409712881868   -2.04008417253348   -0.45519170019749
H          -0.62362889552107   -1.27536372392191    0.61931612104612
H          -1.01331186100037   -2.79835663077499   -0.10350989273485
