    26
        -50.46138056  Gyration_radius:  2.45038140103 Dipole_moment: 8.992
 S          -1.02930633777831    1.04887560038671    1.59489411505838
O           0.35818880079543    1.43060006209716    1.29097507086397
O          -1.85724885255077    2.37518806489359    1.56803793369679
O          -1.54658098643145    0.19422044987905    0.50545853377315
O          -1.16604972015472    0.44471161457236    2.88551846821059
O           0.85521244821097    0.78799652621792   -2.50170441975686
H           0.96337312280326    0.79108935715233   -3.45317760160603
O           1.16042169459542   -2.40571286321364    0.27502387700255
H           1.56401433743122   -3.24583638222142    0.49594185503549
O          -1.27306120121588    2.31070253465042   -1.09023340753354
H          -1.71503102312128    2.71774218200699    0.67236201297785
H          -0.44719805485482    2.16566134079008   -1.56616197780791
H          -1.50894669754518    1.44613665863258   -0.71444167708644
O          -0.88188405175022   -2.00111080625536    1.83866300812893
H           0.40874561040333   -2.28251049415790    0.92449349545209
H          -1.38281449433941   -1.40687107306116    1.25060680408674
H          -0.80981426583896   -1.45533991581506    2.63609613967283
O          -0.61160312367832   -1.18753186805496   -1.60724324881533
H          -1.09093023143603   -0.72704936118379   -0.89228376923402
H           0.21745616606221    0.05329604080141   -2.29038249291359
H          -0.05503213313279   -1.83751304063740   -1.15843210002553
N           2.00238246357612    0.14434758280508   -0.14389175815571
H           1.77986769706070    0.42319289965052   -1.11938598961951
H           2.95280203780642    0.39112656060775    0.10718710152466
H           1.29404731604813    0.69370790864684    0.49655761887995
H           1.81898949903697   -0.86911958918959   -0.00447759181075
