    26
        -50.45450934  Gyration_radius:  2.4518733511 Dipole_moment: 5.289
 S           1.66769722111988   -0.10958664509764    1.25234742665249
O           3.06257272039622   -0.31343592304464    1.09877822482776
O           0.81417174038472   -0.98234057777612    0.46665700722099
O           1.24224570592004   -0.24932831872451    2.73020864273366
O           1.35538245381958    1.35517654424293    0.90290504038092
O          -2.62411048208064   -0.30472823196665    0.83170411853137
H          -3.57461273387403   -0.41444268467316    0.78696105928080
O          -0.40172386812244    1.00311291669935   -2.38013494304210
H          -0.41058329872986    1.62678156587923   -3.10724817711189
O          -1.01284191826329    1.79358053658125    0.14590896371851
H          -1.63821951263929    1.13772779998695    0.50469178663543
H           0.37299713155610    1.54338434357213    0.66261871988571
H          -0.89670206114388    1.57601095165841   -0.80266386141776
O          -0.93489777835070   -1.60921004032354    2.51764861402638
H          -0.56182666719189   -2.16938194054516    1.82897282073692
H           0.36802065354941   -0.74478004051015    2.76624492629920
H          -1.61369366302493   -1.06682641890701    2.06785342785322
O          -1.30500113968794   -1.32519615286145   -1.16947988710139
H          -0.47740164719262   -1.36446011052616   -0.65886263576378
H          -1.15696822327568   -0.61474508728023   -1.81153675250923
H          -2.23516913852406   -0.76570247862264    0.03409629064946
N           2.11633083362031    0.38348475667446   -1.75781413478915
H           2.83254025942231    0.06608437278857   -2.40056798282420
H           0.55787148340098    0.77935713993001   -2.20399914943118
H           1.94222865104152   -0.36802367610629   -1.09783364088018
H           2.51169326772877    1.13748736876583   -1.20745591443337
