    26
        -50.45479418  Gyration_radius:  2.47169152691 Dipole_moment: 5.884
 S          -2.02696276100139   -0.55512168951415   -0.10334335604552
O          -3.02162324387911   -0.81393790248947   -1.08471425503013
O          -2.64710372760631   -0.46662574403002    1.29142946090069
O          -1.07191131088386   -1.76898062074274   -0.01439319689844
O          -1.22255031139492    0.63130567013516   -0.33530396037733
O           1.64069760943967   -0.05569871315331   -2.30459023214068
H           2.18284115446263   -0.34648583168860   -3.03914756890087
O           1.69948888784201    1.05291825470272    1.68106271062368
H           2.54760822854934    1.39078667316135    1.97174868975929
O           1.01330815692467    2.12280049551971   -0.60087073383773
H           1.45171043844148    1.57781760951918    0.86982625731331
H           1.40567668288001    1.56142100052080   -1.28572884678314
H           0.09447963266870    1.81560438619135   -0.53176399868327
O          -0.95768170143040   -0.03337328522879   -2.91733110548176
H           0.70723759251328   -0.09225656871551   -2.61496774381195
H          -1.65317748004198   -0.68700082444714   -3.02799131163569
H          -1.16806095415408    0.39574369635632   -2.07034378662478
O           1.39172605969129   -1.18853679081772    0.16167804796002
H           1.53113109693387   -0.43667860640313    0.77108310038142
H          -0.08087992360998   -1.52903125837253    0.08184332036708
H           1.57609125955493   -0.84216843973122   -0.73339750766798
N          -0.60740978616999   -0.33560209727363    2.82128902855199
H          -1.84561294106082   -0.36907535354230    1.96313919424360
H           0.08892188577386    0.31107917856654    2.45546814295171
H          -0.82253659466249   -0.07411446184004    3.77455068882485
H          -0.20540793978952   -1.26478878666862    2.82076897203116
