    26
        -50.45450934  Gyration_radius:  2.4518319049 Dipole_moment: 5.293
 S          -0.30986636015961    1.77091937162323    1.06297026246551
O           0.22109613099724    1.32343523625688   -0.21183785985033
O          -1.72710556033651    2.32808049508008    0.80719859905362
O          -0.53783994829885    0.55289971734793    1.97382872027885
O           0.48969019979033    2.70658616095366    1.76727046866590
O          -1.78793052349187   -1.08713394716758   -1.81430625841181
H          -2.13883031431053   -1.65800340086778   -2.49874816992308
O           1.59420077782159   -2.04438277560162    0.33285001455158
H           2.04760711337628   -2.77754596704922    0.75088537263724
O          -2.13874086410802    1.60364523773795   -1.62996425016546
H          -2.00976624033821    2.06997141642858   -0.12265428810135
H          -1.23417717587436    1.81372044139411   -1.88482671492248
H          -2.19757625845077    0.62796512947605   -1.67202801104281
O          -1.05088400146717   -1.60421624531673    0.76641350895841
H          -0.81554727091215   -0.30789164902316    1.48395853263720
H          -1.45867325727584   -1.44711698741544   -0.10476887293956
H          -0.12867862266883   -1.88781402941499    0.59401338612264
O           0.78090634408075   -0.67359496157183   -1.93921127439596
H           1.20614987677623   -1.31261584127407   -1.34781419258348
H           0.71862878957187    0.14044108315920   -1.40937894236246
H          -0.80972213562083   -0.97918596368689   -1.99181773064009
N           2.33727826396620    0.24513604760166    1.48096184221909
H           1.92656903696118   -1.21016384209200    0.77499979720850
H           1.89458792790800    0.89937046761087    0.84326843176258
H           1.83984518964401    0.34751468046754    2.35829978341232
H           3.28877888232892    0.55998013541624    1.63043784541189
