    26
        -50.46489352  Gyration_radius:  2.55407241189 Dipole_moment: 4.638
 S          -0.51579599117999    0.11099385443120    0.63498266193413
O          -1.58759418630853    1.12292169337065    1.04076879648399
O           0.77857428080450    0.82461298156544    0.54489082610483
O          -0.43621902045366   -0.90864394678712    1.66149051202398
O          -0.86153456599077   -0.46083343637095   -0.66662539448608
O           0.92251214604289    3.48121798884751    0.28903110580882
H           0.98139347397004    2.50585229872184    0.34739607958433
H           0.90208019877221    3.80255995647148    1.19213191130107
O          -0.57532065930396   -3.49301692507351    1.15408585426406
H          -0.58849115209238   -2.54725640960966    1.42657567065776
H          -1.48729802922255   -3.78539303278286    1.18290920656282
O          -1.07151288467150    1.25512889489034   -2.65777613883716
H          -0.93327936386565    0.56832339129222   -1.96884523030166
H          -1.80404730249938    0.94913384263954   -3.19518832234662
O           0.70097420969501   -2.55210112131380   -0.99037539996642
H           0.24201967391978   -3.16612649525490   -0.37849184077619
H           0.07763469895249   -1.79331468874850   -1.07078608607739
H           1.66395249975999   -1.92084425232916   -0.04356630743247
O          -1.53660401984402    2.97428436900673   -0.66750682589022
H          -0.67103609231484    3.37767675315559   -0.44420812642895
H          -1.39196265931686    2.49292146091386   -1.51247940638207
H          -1.62408960866725    1.89147777679622    0.34568922539214
N           2.14084163685739   -1.33708502048239    0.75906034804588
H           1.82198099368672   -1.71696398810270    1.64918506677260
H           1.69900203835838   -0.35607277681963    0.67308971541666
H           3.15381966491519   -1.31945319842852    0.69456206857507
