    26
        -50.45450934  Gyration_radius:  2.45179297477 Dipole_moment: 5.289
 S          -0.91682818250086    1.32155328775944    1.33186231677006
O          -2.37256828218930    1.61372271890008    0.90760218890408
O          -0.09778478160252    1.34816545147277    0.13361954048443
O          -0.50402741007733    2.18603616189515    2.37734169127432
O          -0.96165654325724   -0.11291677151463    1.88480178245776
O          -1.14346054467912   -0.92488233880642   -2.34687817280333
H          -1.22551661300988   -1.35407777097917   -3.19923406811090
O           1.99684390497285   -1.67356338292023    0.21193127119416
H           2.55356546750239   -2.37746959326705    0.54714182585054
O          -2.20132515620820    1.48410445873724   -1.65898578248521
H          -1.35326498172835    1.94036238111239   -1.66271629846307
H          -1.99910396258123    0.56419852744049   -1.92415792904078
H          -2.43194140174541    1.55470940054124   -0.09454139858499
O          -0.70651111511878   -1.93439333536719    0.15516019327218
H          -0.92814411606413   -0.85293803632763    1.17122383080764
H          -1.00101864649559   -1.64422345335374   -0.72742781115088
H           0.27278895504609   -1.96042322206862    0.12621525364597
O           1.21905640534168    0.04136607239526   -1.82672671729734
H           0.86746513489098    0.65489857993700   -1.15800371848523
H          -0.21095715562249   -0.56931961250089   -2.28329841545851
H           1.69801851641969   -0.62537288462873   -1.31191812347514
N           1.93591385819220    0.33661336796566    1.96346729911777
H           2.02938642259611   -0.93446752209575    0.88611178815378
H           1.44478553500220    1.02695456618067    1.40408480198592
H           1.29793620858673    0.09659895176035    2.71390812607409
H           2.73834848426494    0.79476403768740    2.37941653531661
