    26
        -50.45450938  Gyration_radius:  2.45177889948 Dipole_moment: 5.295
 S          -1.11247172376298    1.71897594372478    0.41309644659485
O          -1.05100055873818    2.79149672622162    1.33869098556652
O          -2.47724347806044    1.68169769029168   -0.30836392824199
O          -0.09607572642433    1.99433901585967   -0.70782131287501
O          -0.87252311386415    0.39755606780572    0.96412187154494
O          -0.92501768482793   -2.17265041737081   -1.44659534726985
H          -0.95644163061403   -3.05039338122314   -1.82880030626355
O           2.55768363543829   -0.53751143174723    0.02041833390532
H           3.49729115925676   -0.46740853773503   -0.15257709164383
O          -3.00048938388376   -0.84032673903687   -0.30008890771074
H          -2.35626989707247   -1.30790948383142   -0.86888411609339
H          -2.66712986934066   -0.94408437110003    0.59732245248451
H          -2.76810308516528    0.72302990379051   -0.39377303381164
O           0.34450407683694   -2.00741182925003    0.82174872160439
H          -0.10394771378302   -1.17746538864903    1.06124286305217
H           1.25465070776247   -1.73962172268134    0.62440101191340
H          -0.44827588736624   -2.24815687157417   -0.57068445308997
O           0.73040585626685   -0.05371080266380   -1.93105073152740
H           0.18515050246924    1.16693863958183   -1.25043418324444
H           1.45368799978723   -0.29813722761247   -1.31658707547279
H           0.08445300364388   -0.78307116319516   -1.90085036884306
N           1.76111136573273    1.52424289981797    1.51256698484038
H           1.65546853409165    2.33700992219891    0.91596230782869
H           2.31365326640552    0.23781144453360    0.60456682764835
H           2.18154924827503    1.83469991913857    2.38069918361194
H           0.81538037670433    1.22006118454033    1.72167287559604
