    26
        -50.45450907  Gyration_radius:  2.45156226831 Dipole_moment: 5.286
 S          -0.50729115223134    1.56592650659327    1.28462938470525
O           0.09525982631499    2.76552679849354    1.74133075248095
O          -0.37793949478642    1.29778387313861   -0.13618460921374
O           0.09413210703711    0.39453164796628    2.07931747039036
O          -2.01194709174028    1.52973837056926    1.62993616034729
O          -1.81045507071689   -1.76276126372262   -1.13527965522536
H          -2.15845309056958   -2.45442804595899   -1.69921002537544
O           2.22945137175940   -1.27046722007217   -0.49513158080794
H           3.04037209620217   -1.75880572387713   -0.34815044881566
O          -3.02298192796669    0.60014608675596   -0.54883316894150
H          -2.42534239173766    1.12473499970382   -1.09203534231668
H          -2.73345229848555   -0.32650171439642   -0.67023530278715
H          -2.51145077072842    1.14431163539309    0.84687917890671
O          -0.01457349399391   -1.84732961305622    0.92309621202007
H           0.80694809094977   -1.76754271116136    0.39464959370626
H          -0.01508858420376   -0.52794721779741    1.63792819452540
H          -0.74969185919792   -1.89496216601243    0.28490851737604
O           0.17330400223940   -0.41311636647159   -2.14996523038481
H           0.99333656409807   -0.81658053210083   -1.82792277540177
H           0.02349820809189    0.33905453363779   -1.55084622883805
H          -1.08650681794450   -1.30019001021785   -1.64711406812509
N           2.45763945654636    1.17997435723870    0.53264610225097
H           2.37356897937626   -0.35332296458932   -0.12103725112939
H           1.60190318024499    1.59034426863873    0.17219072892215
H           2.32648189140007    1.12513147988457    1.53641157419191
H           3.20927827989790    1.83675101145507    0.35802182774690
