    26
        -50.45450938  Gyration_radius:  2.45183704819 Dipole_moment: 5.289
 S          -1.16206446110351   -0.32524711150379    1.70443688290439
O          -1.03232700219054   -0.10900135736501    3.09986612111531
O          -0.37678470211960   -1.59664654524311    1.34082116564468
O          -2.62177039190129   -0.65534943377229    1.32392371762598
O          -0.72473668336290    0.76782393408751    0.85511702395119
O          -0.97865776775289    0.07218624513529   -2.59029452561460
H          -1.00695729226719    0.20988449668939   -3.53774078481419
O           2.55980468622171   -0.18642389689976   -0.49634026402021
H           3.44688345854655   -0.54504977739205   -0.54370127447563
O          -2.92930232087639    0.74175439827876   -0.81783419445405
H          -2.84418690510821   -0.18088539927004    0.46569837864110
H          -2.44110445212424    1.48484805990687   -0.44800618314821
H          -2.35485375949741    0.38308886203706   -1.52405509558014
O           0.39499414971661   -1.72806024808270   -1.05951374779392
H           1.22897356148298   -1.22225620235979   -0.96378128294723
H          -0.12468708499210   -1.68048233718872    0.34715253418819
H          -0.17525157705203   -1.20937129457159   -1.65588984698791
O           0.64107325471918    1.65106922540869   -1.29861723979655
H           1.48014896219297    1.17900939425698   -1.18885847266314
H           0.17410094982088    1.51100369719329   -0.45620789260897
H          -0.35490740242261    0.75544030003681   -2.21053118687711
N           1.86271475260296    0.15735822450798    2.05485094625793
H           2.35630368919574   -0.04795648500267    0.47384033036629
H           2.39667197375181    0.64793253947458    2.76271190034391
H           0.99370961683261    0.66471108219191    1.92029522371932
H           1.59221273787352   -0.73938035091921    2.44265776714961
