    26
        -50.45450931  Gyration_radius:  2.45172462007 Dipole_moment: 5.292
 S          -0.40750555156522    1.98985660099694   -0.48574396156613
O           1.03334230064457    1.62601343200495   -0.88210437218955
O          -0.99046818111260    0.89157312190226    0.26343049829580
O          -0.38051840953929    3.24187800440144    0.17946495459463
O          -1.16079893197493    2.08795840611206   -1.83015985363123
O          -0.89281984035247   -2.19274885073429   -1.43788133048693
H          -1.07874922579615   -3.10512532085527   -1.66262343283743
O           1.80475550513787   -1.15464607472209    1.49709469619941
H           2.65833196727896   -1.38978704175896    1.86298412768591
O          -2.55971341415368   -0.07437557099736   -1.80011785963234
H          -1.72413582145332    1.26261676700785   -1.94261673378466
H          -1.96310065779242   -0.84772163543857   -1.85728140859337
H          -2.75723043261764    0.02355820005681   -0.86265352479524
O          -0.89548423664529   -1.66839744339574    1.11370235380272
H          -1.04057823790135   -0.71807427779588    0.96169243917322
H           0.02140094331262   -1.72459880219921    1.42201501425509
H          -0.95850865344306   -2.11401595785059   -0.44307531932627
O           1.46946859860004   -0.84267390444010   -1.18030026849245
H           1.65527934992542   -1.06370251971751   -0.24368807550598
H           0.66109299268641   -1.32972682860484   -1.42371363147826
H           1.19104313029886    0.62725937475584   -1.07139670609541
N           1.27136882775002    1.40290278285613    2.03218341588238
H           0.30594216643380    1.43846461244336    1.72025383599328
H           1.63674116837185   -0.20038538544519    1.74833793513931
H           1.78511221725417    1.98566467879356    1.38087833593188
H           1.31573242679990    1.84823364281290    2.94131887150903
