    26
        -50.45479410  Gyration_radius:  2.47155407485 Dipole_moment: 5.883
 S           0.45346026684939    2.05261109126218   -0.08790284822684
O           0.43271756858018    0.99608476858404    0.90797115037093
O          -0.31723139787555    1.55069686213149   -1.33184224299838
O          -0.09675501049282    3.29317077895371    0.33362670497916
O           1.88741476599605    2.23348650311225   -0.58664968117553
O          -2.56453267710980   -0.88832830936568    0.79884777039031
H          -3.49867894274821   -1.10072906712683    0.81584239926478
O           1.18815105657489   -2.31807424469703   -0.19740591423024
H           1.24803488952387   -3.27428800431039   -0.19045909896992
O          -0.03273984170860   -1.45416802781509    1.94425705780113
H          -0.97730245563776   -1.45593706088971    1.73005299099669
H           0.81366592586849   -2.05408413933741    0.68858351810482
H           0.24744908125538   -0.53536423353099    1.80024127155153
O          -0.86347331897321   -0.92688620802845   -1.33008338959355
H          -1.54209588113690   -0.97766713978166   -0.62866929127660
H          -0.51347649155370    0.54545763106854   -1.33782040517425
H          -0.10557113174690   -1.45198689194168   -1.00453432516874
O          -2.09016816193036    1.62887263441681    1.55145607186143
H          -2.48743217337094    0.05333942702586    1.07522537392542
H          -1.13146829070382    1.46583040405175    1.54191261730820
H          -2.18327301570598    2.50193636920267    1.16119480074158
N           2.44965599731876   -0.05884353116165   -1.55972155821769
H           2.14271009167660   -0.80824126111817   -0.94242414921206
H           3.43120775088632   -0.19108025473070   -1.76567594257828
H           1.92354487930265   -0.12587045808660   -2.42209377359935
H           2.18618649687458    1.30006237209704   -0.96392907687088
