    26
        -50.46438029  Gyration_radius:  2.41495198043 Dipole_moment: 4.127
 S           0.67985243627499    1.19843490388116   -0.88026256386183
O           1.21662552516921    0.80414920219727   -2.27814047642361
O          -0.74346295602585    0.86398028293621   -0.83594408253740
O           1.41886116362732    0.43614028813918    0.13091433695326
O           0.89053684560310    2.62533028572050   -0.68380909380146
O          -0.56988281119168   -2.84011112279237   -0.56360025967250
H          -0.76138810337962   -3.73555911128834   -0.84566447960879
O          -1.41246400158773    0.99901745686452    1.70113640345717
H          -1.38023528553347    1.01478415468896    0.71784442579615
O           1.70354014525366   -1.63415340586390   -1.53801913618730
H           1.94483403260035   -1.13717494725812   -0.74160416058266
H           0.91525799199125   -2.15109860359621   -1.28063199014954
H           1.40608121221999   -0.17153885423626   -2.21800213930508
O          -2.17981733506857   -1.12371303333961   -1.76729177808187
H          -3.05456150995783   -0.93674780192128   -1.42166686241593
H          -1.63271616502729   -0.33802333851332   -1.54145110409504
H          -1.21780476079553   -2.25313236554838   -1.02543270220327
O           0.01387939974057   -1.22266135705294    1.69575732817918
H          -0.27072526168746   -1.92304852925805    1.09237514910477
H           0.62429770424728   -0.67393185796679    1.16481544025555
H          -1.05797815064934    0.10135811953700    1.91482641604452
N           0.70689076025926    2.44748070187648    1.87625011550944
H           0.81798385983466    2.67958625021520    0.82659866912865
H           1.46464290229725    1.80653079645354    2.10483429401561
H           0.72124434350860    3.27578945679333    2.46294645365856
H          -0.24349196176579    1.88831241938319    1.93322178684972
