    26
        -50.45479410  Gyration_radius:  2.47163636655 Dipole_moment: 5.883
 S          -0.32975465972078    1.49574662704436    1.44218006395193
O           0.99083355411720    2.20188834991223    1.75088659294610
O          -1.41727796938257    2.15512063591337    2.07623485604439
O          -0.45382517388318    1.34053041824981    0.00381044447614
O          -0.15764982239194    0.08815680254957    2.06078270982883
O          -2.11525021408626   -1.65973514743942   -0.88163861096571
H          -2.79189938704405   -2.33630000688606   -0.93174233254681
O           1.87162087605268   -0.83494310549658   -1.61945700444215
H           2.25801198962891   -1.38871265599958   -2.29917842742214
O          -3.00386189650800    0.56881473384824    0.28960133075924
H          -2.17693136164901    1.03080473920073    0.06927908670490
H          -2.52504320572125   -0.88835532131353   -0.42766870943769
H          -3.20018765295648    0.85441405388588    1.18574572955116
O           0.29089795670438   -1.77093262510611    0.39355838894873
H          -0.57333044149778   -1.84360952927293   -0.05693826852260
H           0.92412278270740   -1.47994983141206   -0.29237383579360
H           0.04792356245835   -0.65457336846207    1.38595529989720
O          -0.45302239602228    0.07880714513432   -2.38402175145243
H           1.04728458607193   -0.43772793390659   -2.01646022633729
H          -1.10086401402707   -0.59210151368115   -2.12273267395656
H          -0.48819579878379    0.74029184616522   -1.67363523080185
N           2.73305929480210    0.61436948170336    0.76991941950402
H           2.45513669139853    0.28420459373583   -0.15242499571020
H           3.66235470795304    1.00896406647030    0.70583638678782
H           1.74668906041987    1.60667735696470    1.32975258225954
H           2.75915892132487   -0.18184982181355    1.39472920572475
