    26
        -50.45479406  Gyration_radius:  2.47167547687 Dipole_moment: 5.881
 S          -0.62486860514974    1.75920288217608    0.96918630490137
O           0.50140568820948    2.27149916203184    1.86743628970565
O          -1.11541746652389    0.47399265971581    1.67691829294754
O          -1.69154555978603    2.69638137891735    0.90947456127416
O          -0.06426129193320    1.37723747736432   -0.31468488098332
O          -1.74027713321615   -1.39764810413337   -1.73972891831683
H          -2.44509554881962   -1.94538672535465   -2.08795266431474
O           2.16280240968787   -1.41738743217154   -0.36660224585658
H           2.68739752469415   -2.14024867175694   -0.71335817101537
O          -2.52772596038623    1.12128263789260   -1.33685435768260
H          -1.61592448952086    1.38718108045114   -1.12768077621769
H          -2.12227548434823   -0.49946972688570   -1.61164868463700
H          -3.06241556134598    1.58905439573004   -0.68993121382159
O          -0.37082323714153   -1.69779026018139    0.59734737058250
H          -0.79207805847992   -0.39994481356345    1.25138141175167
H          -0.89316794171578   -1.69701594472974   -0.22869283169611
H           0.56524148488152   -1.64590444436587    0.31952227514551
O           0.80316170623295   -0.26428645567939   -2.27588938990529
H          -0.02797463792013   -0.75678295370091   -2.34457567801874
H           0.58390457008147    0.50742773351298   -1.72830958987361
H           1.75966171564960   -0.95957801098285   -1.15580194492129
N           2.06486484969520    0.25952891866038    2.02733446520769
H           2.20296876693113   -0.17501662951497    1.11683402631626
H           1.19986249644113    1.49019345680007    1.93481106113723
H           1.59203439640274   -0.40645895752157    2.62557027046886
H           2.97054538737573    0.46993735730211    2.42589501781970
