    26
        -50.45526233  Gyration_radius:  2.41584530241 Dipole_moment: 6.812
 S          -0.14611268551433    1.60720972757718   -1.02773557475231
O           1.04185600969156    2.45291947877579   -1.04493565270766
O           0.16100741877887    0.30951171041334   -1.68230113514921
O          -0.66050783027879    1.39675304276158    0.30237286004181
O          -1.24769929604411    2.29981014612043   -1.88597546815236
O          -2.28518165826852   -1.23080221733293    1.07613904734223
H          -3.06224584735886   -1.50381966871611    1.56517028156192
O           1.95642854232511   -0.97105294376802    1.41566712324786
H           2.45389455357229   -1.71007055875630    1.76931670223778
O          -2.57968900396585    0.05235296645405   -1.44829878646802
H          -2.58883241397312   -0.24321346866842   -0.52132189825954
H          -1.99831088076178    1.67313837578523   -1.80166111950076
H          -1.74111827037820   -0.26442919992042   -1.80514019676082
O          -0.53576877810694    0.11012415296812    2.59435502967264
H           0.35862466448335   -0.24111267081488    2.51564022062327
H          -0.59302967305882    0.78002834343357    1.88667028997913
H          -1.72385548043991   -0.71169733151259    1.70280667251757
O           0.09050103547009   -1.85808445442241   -0.13886404979251
H          -0.78251497777764   -1.85415829761232    0.28780980195875
H           0.06141085603509   -1.10185684550293   -0.76165366723424
H           1.20498158808941   -1.37029314507100    0.87642063350831
N           2.58129251315660    0.46189474900521   -0.76661564472345
H           3.51067557991660    0.41008636538547   -1.16999783059357
H           1.83503523773271    0.04632089457303   -1.37209539530419
H           2.51362786454367   -0.00234595772278    0.17414486427227
H           2.17553092213108    1.46278680656742   -0.73991710756623
