    26
        -50.45526237  Gyration_radius:  2.41578502143 Dipole_moment: 6.812
 S          -0.24648000395413    1.51523250468336    1.14142473138465
O          -0.17403146899639    1.53480897631465   -0.29822243385616
O          -1.44583300052605    2.40224299253924    1.59358666757530
O          -0.51498739888471    0.13974253334828    1.63397051141026
O           0.96298379747376    2.02977917842026    1.77326390233688
O          -1.80123918409633   -0.53338513420621   -2.08984012320026
H          -2.33194260786718   -0.56638858404952   -2.88660661050740
O           2.13563734335757   -1.33259179585908   -0.66138085422074
H           2.57717411989416   -2.14710240158473   -0.90700968303373
O          -2.88289087224274    0.60175801744682    0.28643614556633
H          -2.19670739306896    1.99330892685365    1.11157291625161
H          -2.55340982634271    0.38412098665852   -0.60285153461185
H          -2.36065498512412    0.05799536561498    0.88847631488649
O          -0.35160819828024   -1.82469991571050   -0.15464724403161
H          -0.93795698686725   -1.56967855525637   -0.88634239164878
H           1.16267088685584   -1.56510456945189   -0.54280614449466
H          -0.49188229432150   -1.13152355328370    0.52391001578301
O           0.65871835270237    0.42384723874271   -2.53349854171291
H           0.43972739440090    1.03466438669881   -1.80427680842060
H           1.34345190883047   -0.14692921912014   -2.16627829929598
H          -0.93468257954182   -0.13063384610128   -2.34308622548077
N           2.04073778961349   -0.26139855691182    1.79817019318842
H           1.04100779588359   -0.51630145968463    1.97653746059639
H           2.28996455410436   -0.62633034422606    0.84427335950226
H           1.89439528553139    0.80887226764203    1.78221586570660
H           2.67783757146800   -0.57430542951789    2.52300881032874
