    26
        -50.45450939  Gyration_radius:  2.45175172644 Dipole_moment: 5.290
 S          -0.25471824749545    1.70872831130153   -1.17259757330806
O           0.43710305158546    2.06791220319829    0.15322942851499
O           0.44401036770738    2.35310173629274   -2.22492402903623
O          -0.36366418025659    0.26520316309662   -1.28077854942501
O          -1.68416865403654    2.27350914822994   -1.02326301669266
O          -2.01130126355623   -1.23922832355122    1.44444241637811
H          -2.46370540534946   -1.89721287406153    1.97346557230849
O           2.08883675336197   -1.16303701915947    1.05691165345327
H           2.90208907745949   -1.28751108123059    1.54769486407078
O          -3.05840730919393    0.12503019354500   -0.66254181882409
H          -2.81143784319298   -0.27645638209161    0.19485332838123
H          -2.31289719971643    1.51008779856408   -0.84146480326627
H          -2.55043990798842   -0.35734612871474   -1.32324297754305
O          -0.18777263194209   -2.18294672962918   -0.15842965058694
H          -1.36953137151096   -1.72612355710655    0.85186938494147
H           0.66381663018808   -2.11282091038801    0.29864686144982
H          -0.22074861873443   -1.39443868690981   -0.72803618906022
O           0.09278482974364    0.40641809224581    2.02263669509723
H           0.81945229402753   -0.21014064360427    1.79393462574208
H           0.23787779180997    1.42679149979123    0.93258482900074
H          -0.73700587975785   -0.09407556668660    1.91817848764247
N           2.53953598731550    0.41286389862722   -1.04667788075182
H           3.26851438575375    0.29432259696575   -1.74044436823045
H           2.57087889020868    1.37590709697246   -0.73163425069694
H           1.64687945210885    0.31429876025027   -1.52004090648798
H           2.31401890747676   -0.59283662213764    0.26562784376746
