    26
        -50.45526238  Gyration_radius:  2.41580606987 Dipole_moment: 6.811
 S           1.11147653810617    1.39174477640687    0.69760089527644
O           1.18291710110086    0.82559181082221   -0.62624257734251
O           0.34606358126034    0.50135030362565    1.60754263836926
O           2.55573642236902    1.49806876181086    1.27419799006133
O           0.51816245305624    2.72388499913345    0.70912086855946
O          -2.41708029037845    0.04273694312516   -0.96501925857625
H          -3.27063570994656   -0.36656076409651   -1.11552707865315
O           1.12986449545776   -2.31947508781023   -1.11387286317804
H           1.56038821764491   -2.99540006780858   -1.63860166330945
O          -0.00334860830805   -0.41782862758880   -2.61884609062818
H          -0.91969236378405   -0.25289569219733   -2.36866259098866
H           0.51183572415086    0.18958386114421   -2.05453627827587
H           0.78233532218533   -1.64640570752468   -1.74898795980794
O          -0.95583265180702   -1.52752232485317    0.47889296240268
H          -0.43926621192530   -0.83925218905366    0.94798049409716
H          -1.86623973739825   -0.63341559846515   -0.46092645055426
H          -0.29585192234656   -2.00968846864211   -0.04663166867627
O           2.50483342904891   -1.14318048216215    1.08417736411889
H           1.70810367342259   -0.95376269195100    1.59426370288635
H           2.18489146966208   -1.48435461655794    0.23095664661423
H           2.87072667134386    0.57062446693782    1.21064597024518
N          -1.81768308787276    1.78634345414441    0.98613765552705
H          -2.55320109917831    2.25521728457015    1.50414041625623
H          -1.26657718327614    1.10511324080435    1.55928534022829
H          -2.17257677280814    1.26866004702972    0.14281528221245
H          -0.98934945977819    2.43082235915709    0.73009627313502
