    26
        -50.45479408  Gyration_radius:  2.47163626355 Dipole_moment: 5.882
 S           0.98899052208680    0.91227032086873   -1.61713577867837
O          -0.49611944329509    1.33062412130015   -1.50465506106463
O           1.78022685831230    2.06297540512586   -1.88062305815001
O           1.34089117054154    0.18194309561955   -0.41244474995527
O           1.01511925463215   -0.05089971712709   -2.80429925669290
O          -0.93874800484896   -2.33233907242700    0.70802597922121
H          -1.36006329081297   -2.96639365566868    1.28977248384304
O          -0.38297102195837    1.38495684580453    2.43758442045043
H          -0.70436401328569    1.98507218765706    3.11183794927016
O           1.54072658040455    2.48239495140089    0.94669337620791
H           0.30660073915920    1.87470298750388    1.93392726672969
H           1.70022112402533    1.63218436101404    0.50226191101960
H           1.58934166083729    3.12977522849172    0.23835795212157
O          -1.77809496566455    0.24146828123186    0.39461239011406
H          -1.01552319713889    0.86970622119408   -0.75166472175261
H          -1.55226123818636   -0.70694198644567    0.46941293339598
H          -1.37725979479761    0.67193131597033    1.17512373411873
O           0.97046933602593   -1.06001774904484    1.95693821612388
H           0.54796680312631   -0.29981674266404    2.38313428136201
H          -0.15899881860744   -1.96559223300002    1.21044737375808
H           1.34385099786580   -0.70146686945937    1.13505416936661
N          -0.72865702146838   -1.80077414381262   -2.15998782986793
H          -0.71475732574453   -2.63097175306530   -2.73787696003842
H          -1.62590600619741   -1.34410172364184   -2.26673865456995
H          -0.62969450721475   -2.08058239484920   -1.18591459208245
H           0.33901360220142   -0.82010726197213   -2.57184376425485
