    26
        -50.45526236  Gyration_radius:  2.41589409573 Dipole_moment: 6.814
 S          -0.72411639714502    1.54947600520588    0.85759578932634
O          -0.30652090389131    0.36521271274730    1.65119854003190
O           0.21658496551853    2.64094384301057    1.08233391696224
O          -0.85604283778627    1.20653905318798   -0.53637275461627
O          -2.11817579900377    1.99033356314078    1.39781001184386
O          -1.65163520579935   -1.73070997201937   -1.47511593587980
H          -2.21462673539502   -2.18017391134034   -2.10642145228096
O           2.39504253155851   -0.52856890000981   -0.87188574594058
H           3.10837726364113   -1.14255244693615   -1.05326185335661
O          -2.79596560908008   -0.50554891604071    0.82631301746304
H          -2.52476335226259   -0.81025910313619   -0.05702749349697
H          -2.01624585067564   -0.62080776800625    1.38277203579121
H          -2.67505414511521    1.20931392916249    1.18980756017286
O           0.45261461063162   -1.78702437768450    0.28104356083984
H           1.64217774065833   -1.07771900177194   -0.48934311045108
H           0.11724352916187   -1.04670585451323    0.82879924859103
H          -0.27663054609634   -1.98624127429627   -0.32949103716894
O           0.07399798701820   -0.05544040356802   -2.64967871926352
H          -0.28946306730365    0.59548393637128   -2.01958097244317
H           0.97946819704303   -0.19498279978085   -2.34947022726549
H          -1.08459877261830   -1.10889807602324   -1.99382863971516
N           2.16965046711793    1.04304229989824    1.29270979195028
H           2.96799514815301    1.20858886938864    1.89641135473172
H           1.57588049920928    1.92631607494103    1.10747349902180
H           2.42476264841370    0.56010757529638    0.39443667084689
H           1.41004365401030    0.48027496277021    1.74277296430742
