    26
        -50.45526238  Gyration_radius:  2.41586006065 Dipole_moment: 6.812
 S          -0.72127013218001    1.30214908079244    1.20174695841461
O           0.13511073774338    1.66292426003023    2.32567192275309
O          -2.04630187534572    2.11446008513641    1.32002053341369
O          -0.07119633188899    1.71594240948218   -0.06824104894872
O          -1.04152835084104   -0.10315137151037    1.17463009365058
O          -1.69446478034013   -1.62470569465244   -1.54498018813448
H          -2.30644734027706   -2.26683058196756   -1.90649865576664
O           2.26379984766353   -1.28495596741265    0.00435840595059
H           2.99386651035894   -1.70542363233096   -0.45274607206507
O          -2.56683137434711    1.03852044287473   -1.04351359216010
H          -2.41232720419712    0.07942023563304   -1.09817623790817
H          -2.55261923131109    1.79531577000619    0.54208988674476
H          -1.70109069958416    1.44126198391085   -1.18184240390865
O          -0.34644442524139   -2.56701082299360    0.56665833287133
H          -0.66438909350408   -1.75300846082732    1.00158895084220
H          -1.27955559917963   -2.04416511458197   -0.75178757073436
H           0.60453084022637   -2.43346317798989    0.48130202172525
O           0.65949826673155   -0.23197570619733   -1.72869062392496
H           0.34738557073241    0.52128930430456   -1.18484330761528
H           1.63744127617802   -0.95370205332075   -0.71165030966242
H          -0.13576925937582   -0.77070016839724   -1.87548711193633
N           2.23969362075046    1.21115867273679    0.99198985933258
H           2.39259071806705    0.19581830830439    0.76651464676017
H           1.61860264874532    1.60452068220510    0.24640806614982
H           1.54282651422505    1.33033248614392    1.80875315720869
H           3.10488914621421    1.72597902062677    1.11672429692402
