    26
        -50.45526236  Gyration_radius:  2.41588772831 Dipole_moment: 6.813
 S           0.24458121998123    1.89022252280050   -0.16499560703607
O          -0.71325993731529    1.16760766511395   -1.04074623053089
O           1.40015498800258    2.30840409644865   -0.95025353210005
O          -0.48366387972293    3.16956456540900    0.34731363714813
O           0.60718139674257    1.07892815092362    0.97015462898044
O          -1.38308915596572   -1.08481537483524    2.19311165510602
H          -1.69731753824152   -1.41015293656256    3.03747268841068
O           1.38043993800351   -2.00512728636271   -0.92163390472610
H           1.44242441808868   -2.90108874907987   -1.25651497575666
O          -2.28474584345584    1.43335390488339    1.21720554402592
H          -1.91838008649274    0.67385833705263    1.70262603846134
H          -1.22340767446545    2.78959496514416    0.86864186614140
H          -2.20099445475830    1.20033262571382    0.28471423338797
O           1.27565635326891   -1.27136256429208    1.94637333895456
H          -0.39713794167811   -1.15367296304678    2.21219466379841
H           1.53623630147990   -1.70196566007221    1.12409249771666
H           1.21601197088695   -0.32547839048648    1.71274919061756
O          -1.10315069226585   -1.41218823695328   -0.51413117156724
H          -1.04655998657476   -0.45228279352176   -0.70382203603789
H           0.40688502345202   -1.84903855539462   -0.71531148200756
H          -1.34821357699981   -1.45960508163518    0.42496553677418
N           1.28796602809891    0.23450525985867   -2.39879444442389
H           0.26884955318575    0.41404326739257   -2.23929507365472
H           1.53094127152210   -0.65379404390209   -1.89182529698766
H           1.55156941804472    0.21880695932232   -3.37828760796315
H           1.65102287717853    1.10135028608109   -1.86600417673127
