    26
        -50.45450936  Gyration_radius:  2.4518638078 Dipole_moment: 5.290
 S           0.04178129103670    2.03111846795873    0.48288179652320
O          -0.12001392619192    1.17121102258896   -0.67543767802800
O           0.50928616420486    1.18708023800653    1.68058285043600
O           0.94546560986105    3.11232621008444    0.32396258639718
O          -1.36101498107779    2.53101199689566    0.89142136583109
O          -2.29372720193925   -1.54588449690311   -0.13067821919934
H          -2.86516298299935   -2.29360365292233   -0.30917300879698
O           1.80897359028904   -1.88656446857484   -0.00743121148904
H           2.51602869876054   -2.46165898413230    0.28765843835480
O          -2.88474884699199    1.06967537882057   -0.58401044861269
H          -2.29412519408341    1.14915374203774   -1.34037135783973
H          -2.81238121163354    0.13653785775683   -0.29873997932617
H          -2.04993459907256    1.99573246002885    0.39142380550020
O          -0.24234003138501   -1.22316265305407    1.64616203485428
H           0.14399079640794    0.22588666092567    1.70051713381299
H          -1.06554445814165   -1.34220425000734    1.13810392378083
H           0.48047812278053   -1.58437836845586    1.09171394304574
O          -0.26883702233010   -1.29993551509245   -1.75063052330771
H          -1.58378797490966   -1.54117930755570   -0.83503182436041
H          -0.16111206683611   -0.35585387140786   -1.54017585146528
H           0.49201640753367   -1.72763199043431   -1.32969887046279
N           2.70207837736028    0.62041910564574   -0.18308322345394
H           2.19825774234644   -0.96787415895880   -0.08602631715898
H           3.53213448653181    0.92855940530043   -0.67590067430452
H           1.90038197739088    1.04887948859063   -0.63517080843948
H           2.73185723308993    1.02233967283779    0.74713208769868
