    26
        -50.45450939  Gyration_radius:  2.45190550373 Dipole_moment: 5.292
 S          -0.10612288951856    1.56921541971836    1.37429632982214
O           0.08581078843513    2.11714295337410   -0.04995098143529
O          -1.57364037802501    1.90431422314488    1.71858718740613
O           0.01925789503049    0.12314688439168    1.35247468503450
O           0.79122099580941    2.25093944409643    2.23505765212978
O          -2.17362638639609   -1.45532217433468   -0.90833080231437
H          -2.67488265889300   -2.14374577993422   -1.34680317764440
O           1.79411042376365   -0.74449477488217   -1.74849302767965
H           2.42436211710107   -0.70754194315976   -2.46903953900008
O          -2.69015370609571   -0.41057593181655    1.54874520099664
H          -2.11917177489393    1.06251030900836    1.64881141154608
H          -2.66911635804480   -0.71294513143155    0.61844113092998
H          -1.94283710477375   -0.84527357591609    1.97269401198727
O           0.16542633051640   -2.19055995976358   -0.02941615444590
H           0.81583995517633   -1.95595107729815   -0.70836836198313
H           0.20514001250817   -1.45463595022374    0.60626687060551
H          -1.32048434805895   -1.86804820056315   -0.58895006642002
O          -0.59446762786416    0.54153456675637   -1.90202194254033
H          -0.25711510395029    1.50231732661947   -0.79964394880521
H           0.24305421776384    0.03697758079291   -1.96788073971251
H          -1.27578660855453   -0.09193446394804   -1.61132461080868
N           2.65957997043728    0.75152133796794    0.28273408358205
H           3.57604361284379    0.70767285558534    0.71280170445562
H           1.97785571520592    0.48401459500359    0.98585567382040
H           2.46466691136608    1.72489637679903    0.07704998588647
H           2.17503598912211   -0.19517489997666   -1.00359256540927
