    26
        -50.45462551  Gyration_radius:  2.43346812258 Dipole_moment: 7.024
 S           1.19007265106263    1.54312794663755   -0.08610567728366
O           0.88469713555076    2.62044194325547   -1.05697243292888
O           1.86000564689959    0.43342652949592   -0.98406785325572
O           2.10518622761634    1.93465124861532    0.94987709403406
O          -0.04561340715995    0.96532743132002    0.41202068964402
O          -1.93025290013756   -0.83304552924845   -1.40958138149472
H          -2.76976820777142   -1.15520010462259   -1.74022099908403
O           0.23068009415150   -1.86589871018378    2.04534757686187
H           0.70611194546297   -2.55095795592002    2.51780073888636
O          -2.06291431841076   -0.51507186986779    1.17012618715159
H          -1.42148927602406    0.21290179347732    1.05932295526305
H          -2.05202938970345   -0.70275423882200   -0.42140370715637
H          -1.53882440317599   -1.20935020960722    1.59414572971065
O           1.30420848055474    0.38150434466206    2.93249854356564
H           0.62863138453706   -1.00663100207236    2.34452162166850
H           1.70264481502221    0.92801305170108    2.21851101614624
H           0.61103744373976    0.93102662118491    3.30406365451865
O           0.61075126559718   -1.79331742496618   -0.63030072271403
H           0.49882549589971   -1.86108854318885    0.34202014855017
H          -0.27062802318298   -1.58784461133126   -0.97536177349470
H           1.44373884555220   -0.46204863092078   -0.79725827993484
N          -0.36797803531108    1.10648082955245   -2.58645303245787
H           0.15214661907756    1.89599789734109   -1.88012173924471
H          -0.86195864012254    1.55634915453068   -3.35012573022921
H           0.40087045420839    0.53793285393235   -2.93431800179606
H          -1.00815192393413    0.49602718504391   -2.03796461492523
