    26
        -50.45450938  Gyration_radius:  2.45187971914 Dipole_moment: 5.292
 S          -0.01482409629901    1.69819761328920    1.21557544020577
O          -0.15789070329083    1.33628924005708   -0.18294610957349
O          -1.42925047462530    1.96515202088456    1.77454422444240
O           0.48353836136420    0.47748589788656    2.00766694495818
O           0.85604184887188    2.78478021701466    1.48355982943735
O          -2.24769686612539   -1.44848595168909   -0.71905955549737
H          -2.79745041545423   -2.08985686620881   -1.17059688433724
O           1.86308861993060   -1.68916146773927   -0.71157865295797
H           2.58855348188841   -2.31210504816630   -0.65310823777038
O          -2.91838671971287    1.12513055611682   -0.15178491694251
H          -2.81664658494389    0.15603302003646   -0.24050585166889
H          -2.10513137593201    1.63804664337964    1.10565669280757
H          -2.33588390421054    1.50268764197352   -0.81915657313866
O          -0.19626268992549   -1.76159855908859    1.05920142904574
H           0.53348885138854   -1.86461606734604    0.41323762707511
H           0.14700823322807   -0.43008437359329    1.66005587904860
H          -1.01868137481044   -1.70390958658528    0.53932719318941
O          -0.24129347399121   -0.54726174914523   -2.11400284616276
H          -1.54240466983646   -1.15618781610403   -1.36513979229173
H          -0.15996314499066    0.24961605225362   -1.56117410805211
H           0.53431529401469   -1.07988888769364   -1.88210561441818
N           2.68149016430410    0.72193725719607    0.08188404662284
H           2.22500568206057   -0.79832747482167   -0.43366308266047
H           3.50007461263535    1.21764115824930   -0.25132525664700
H           1.86566137248829    1.26653835298766   -0.17980368903795
H           2.70349997198097    0.74194819685023    1.09524187434416
