    26
        -50.45450916  Gyration_radius:  2.45176355416 Dipole_moment: 5.293
 S           0.54738665750850   -1.72553581971801    1.04126535826558
O           1.65015369200374   -1.41738085346172    2.07727221758895
O           1.27140356801650   -1.66714913754496   -0.31443953807353
O           0.03402686689097   -3.03626009991968    1.21234746536719
O          -0.42908303571268   -0.65348209902223    1.10969473097839
O           0.93860711802636    2.54440034345485    0.55690072308585
H           1.02025320244331    3.49836843047671    0.52935995840677
O          -1.07005123027931    0.42451590479065   -2.34594532234879
H          -1.22234987831336    0.38465754289220   -3.29094393178380
O          -1.46268160631020    1.63493641167511    0.11930769966290
H          -1.26579866810029    0.78602448378978    0.55263693448996
H          -0.02634181190094    2.32558721270814    0.41159952965377
H          -1.52104615120100    1.41504828421299   -0.82267420969827
O           1.04630401716485    0.98502275941606    2.78244811633165
H           1.52979322326079   -0.47342634834258    2.40238631885521
H           1.18443573907402    1.58764354674897    2.02410408189390
H           0.10335052552585    0.78961525365805    2.78149065582875
O           1.44268055323626    0.63655959721603   -1.33390660239166
H           1.41696379648503    1.33819050062254   -0.65783264084458
H           1.40223277964662   -0.72020403034639   -0.69364739581510
H           0.57198170851273    0.65253627970084   -1.78334866868906
N          -1.48514320254427   -1.97809877916965   -1.26508300239179
H          -2.30847414337579   -2.55629690724240   -1.38627624691828
H          -0.67401392183858   -2.56047091840993   -1.44009955270602
H          -1.26585160113087   -0.48771949595073   -1.98363376818424
H          -1.42873817708059   -1.72708208222469   -0.28298292056351
