    26
        -50.45462547  Gyration_radius:  2.4333547638 Dipole_moment: 7.032
 S          -0.18675380497808    1.57255833064720    1.13968755681803
O          -0.12543624660612    1.02250306009058   -0.20294838654254
O           0.01798678879925    0.35390171293585    2.11981291271381
O           1.00836464759758    2.41089489797907    1.39371860627461
O          -1.43116668414957    2.22367552201953    1.44217276690192
O          -2.23431664688982   -1.39840417724226   -0.88006867459353
H          -3.01004626731971   -1.94038454969093   -0.72838999758173
O           1.96438564693683   -1.22771785611471   -1.01950260452946
H           2.58727644056765   -1.66686768796474   -1.60001227693233
O          -3.04176789339329    1.04986011735182   -0.29343583856060
H          -2.50353683870610   -0.47151626019273   -0.64642735690792
H          -2.51851594305743    1.46754645484752    0.42691907182539
H          -2.90007584028580    1.61274603572424   -1.05741669781647
O          -0.13758901875750   -1.83687599555906    0.76982316602160
H          -0.12574679378392   -0.51188156341413    1.63049582607680
H          -0.92115166815966   -1.71635856889656    0.19201856650131
H           0.62780009121877   -1.76509244357500    0.18062163819387
O          -0.09123053918751   -0.40934363669096   -2.39010908627906
H          -0.15907943354645    0.32339929605437   -1.74810551205124
H           1.21348087539773   -0.91085054172874   -1.60598546064220
H          -0.85082401295280   -0.96722100956237   -2.17040687961121
N           2.60054595134843    0.53767031944979    0.99612939564386
H           2.32268245428245    0.00790317653786    0.14427867972116
H           1.91426462989319    1.48660260687455    1.13146075539139
H           2.39712467417540   -0.03484244688922    1.81245631476469
H           3.58332545155555    0.78809520700761    0.96321350519968
