    26
        -50.44586031  Gyration_radius:  2.58715577631 Dipole_moment: 4.990
 S          -0.39199846964855   -1.26033590846357    0.99660137125591
O           0.21521082304438   -1.79722643878112   -0.26031370498411
O          -1.50716235231954   -2.28554703233612    1.38569960688050
O           0.58859517114797   -1.20230349995019    2.04935183211182
O          -1.03805116008881    0.00224858072856    0.73057153314043
O          -1.45183197487141    0.86468197185042   -2.82541594561907
H          -1.39704251102571    1.46722713009719   -3.56906522993946
O           1.35795513247772    2.05987840133784   -0.44191601793177
H           2.28144695870119    2.29013456032000   -0.55600880082405
O           0.14164842245361   -4.25905985260661    0.72038299253527
H          -1.03476210470875   -3.14021330256374    1.39060280066654
H          -0.19897565483371   -4.84068379319425    0.03667707786967
H           0.45050857519372   -3.45240608413243    0.26796634703257
O           0.73475820729266    0.00066835699002   -1.83898483811691
H           0.50573926077609   -0.81717534237391   -1.15423090752478
H          -0.14914821551593    0.25395885916212   -2.29703478327418
H           0.99035192003990    0.80520497426518   -1.25909175181195
O          -1.49986747601276    2.24538489785344   -0.61444235313106
H          -0.59069199121617    2.56454534425996   -0.56265871012741
H          -1.65229624054047    1.41760485451434   -2.01811728276845
H          -1.51541668732528    1.46439978686766   -0.02776468821819
N           1.05549141552396    1.53619030707392    2.06715866101404
H           0.95320871960217    0.51589688752494    2.10323410932529
H           0.16415457478133    1.91473274273715    2.36383006610765
H           1.75249525918735    1.80421193554698    2.75152490055025
H           1.23568041788396    1.84798166326337    0.56144367579554
