    26
        -50.45450942  Gyration_radius:  2.45188229273 Dipole_moment: 5.289
 S           0.85639948053216    1.73933041499761    0.77618620841254
O           2.10905647310941    2.39893638262973    0.69477077083863
O           0.06240189772509    2.05819055262300   -0.50187367111038
O           0.91379503818627    0.30029988167083    0.95834308175147
O          -0.00700047072450    2.31917225957693    1.91760417715008
O           0.16896157658638   -1.21532115393017   -2.30809150718523
H           0.16201869062020   -1.36225152707377   -3.25473875936115
O          -2.24969191373942   -1.24720791380666    1.02516447388076
H          -2.92583709017065   -1.91170764355597    1.16197302741587
O          -1.69955046374868    0.35758938290833   -1.11749202390279
H          -0.70092698240704    1.40171221793916   -0.71171961113696
H          -1.12477208800331   -0.26285934964740   -1.61245433375787
H          -2.02516655059411   -0.12974376488201   -0.33874196223004
O          -0.98856371191514    0.18089911854972    2.96576152713475
H          -0.15476976856864   -0.29241639932866    2.87619070306666
H          -0.47356716267373    1.56000925560895    2.38357793413835
H          -1.59498981588838   -0.24412062896158    2.32625775057729
O           0.07119348572689   -2.17601424781346    0.29342322987039
H           0.11005738167841   -2.12806773059443   -0.67363085952019
H           0.53382721552356   -1.37385264771366    0.59300227810504
H          -1.40621412928133   -1.72805073164035    0.78538123982748
N           2.18767171573484    0.40419457921250   -1.66368136718883
H           3.15767454024362    0.29093235417441   -1.93397614511396
H           1.92062350529151    1.35886032138067   -1.87591359771230
H           0.95665376012421   -0.62945262207893   -2.11312103476062
H           2.14071537664217    0.33093963976637   -0.65220151917923
