    26
        -50.45450935  Gyration_radius:  2.45188016996 Dipole_moment: 5.293
 S           0.83116988012230    1.47220749387980    1.22653446845454
O          -0.12059949429050    2.68057541495768    1.36172817739570
O           1.91513341078868    1.56875312938087    2.13567455622715
O           0.02719141625064    0.26805056463789    1.33127139879057
O           1.39126765983167    1.58625400645920   -0.20130349302935
O          -2.55931313267352    0.08049439242084   -1.05226004226977
H          -3.35899168733208   -0.20638266088160   -1.49464581470889
O           1.01767479979465   -1.91845756396990   -1.45446881661191
H           1.56629941150489   -2.37580363726442   -2.09294401030188
O          -2.42825392591411    1.54337466506031    1.23641638490275
H          -2.13720407172506    0.80428412977947    1.78072997063666
H          -1.06819481220253    2.35159737889939    1.29144648813271
H          -2.55583133396626    1.16881463357808    0.34153818414341
O          -0.03400111825397    0.52747907014436   -1.99661119145041
H          -0.97454465231627    0.49308343837712   -1.74324913744910
H           0.77604470119883    1.21697189975890   -0.93812531806774
H           0.30714258037583   -0.38809132065737   -1.92096897042371
O          -1.23686760670272   -1.80858154423715    0.15870299059731
H          -0.55060733349212   -2.11744581065470   -0.45184991125705
H          -0.77704276306179   -1.17457644888188    0.73648710135988
H          -2.16708685000897   -0.72107368765137   -0.60069173248834
N           2.52878513888196   -1.01094267317907    0.54682472968125
H           2.99641392794926   -0.16361976441751    0.24500705994559
H           1.62222415967903   -1.62415706291207   -0.71300459894791
H           3.19335539558339   -1.54999719006247    1.08960264182372
H           1.79583630998053   -0.70281086257235    1.17815887491526
