    26
        -50.45450941  Gyration_radius:  2.45183826651 Dipole_moment: 5.291
 S          -0.13200080403925    1.99931611309464    0.58851531307812
O           0.44336673828974    2.82145646748364    1.59045123477955
O          -1.34080441161899    2.69269197827296   -0.07665891498042
O           0.89098093922948    1.84262228491081   -0.54924881313526
O          -0.56714761216736    0.68538430194782    1.02615783331278
O          -1.86802657979603   -1.31310826243561   -1.56688823083859
H          -2.32597153785528   -2.02689484633311   -2.01212903763041
O           1.97037163242140   -1.71254677013516   -0.12846083309639
H           2.82473586645180   -2.09343418463918   -0.33524650820536
O          -3.02966165954811    0.75464635739194   -0.23628564256625
H          -2.79201591931835    0.42415910625860    0.63636560581776
H          -2.06299806402373    2.00803119770975   -0.22102915375357
H          -2.69440534860085    0.08390929615272   -0.86485773578447
O          -0.67885805991155   -1.98497680905814    0.65104414903515
H          -0.66534269961622   -1.06607551262917    0.97151980962411
H          -1.48839679352992   -1.68712809357783   -0.72063933494948
H           0.24624080298392   -2.17763815340170    0.43640199677105
O           0.61196844972994   -0.23355574020697   -1.95876919681861
H          -0.30777772479903   -0.55609469687534   -1.95697459868014
H           0.73265132940586    1.03392629874332   -1.16470737505950
H           1.12343631210497   -0.85133905102329   -1.39568321090648
N           2.28125508451381    0.33748998001135    1.54917129726800
H           2.13550496250105   -0.97076652637419    0.52282146931052
H           1.30709502622107    0.51576238574500    1.77254028723802
H           2.79796057475639    0.32697103554027    2.42079051204534
H           2.58783947619822    1.14719182343905    1.02179906813787
