    26
        -50.46095760  Gyration_radius:  2.41776197015 Dipole_moment: 4.511
 S           1.62099159679192   -0.54497307526308   -0.23688999289727
O           2.37833662838055   -0.58310546121064   -1.48382292275475
O           2.35492153897077   -0.79866681374992    0.96701296405904
O           1.09203095148769    0.96311668737687   -0.17624003210285
O           0.40877628451660   -1.36162176891275   -0.34734562486429
O          -1.52488684437342    0.24325884853281    2.45096974912450
H          -2.00610225852024    0.24268933304470    3.27945009711498
O          -1.38316328377639   -0.40233451475311   -1.98027993073102
H          -0.81256390685608   -0.94770977343279   -1.38861461238853
O           1.09133500874814    1.08699520828240    2.36285119102790
H           1.64129773205651    0.28745514074193    2.29382108240923
H           1.13173370210067    1.17502217033766    0.80822041167010
H           0.17324590120626    0.80032796072554    2.53499884460376
O          -0.84014470420421   -2.20832078611730    1.78426300906182
H          -1.45637271197372   -2.85382446919345    1.43341334971452
H          -0.26102931125861   -1.95471413969895    1.02671602175591
H          -1.32600064361159   -0.70288780149979    2.23629046979632
O          -1.67537346812970    1.45353060211439   -0.08577202863886
H          -1.84566030417452    1.10087856010028    0.80071477191046
H          -0.71283893104132    1.54125498247769   -0.13093905099773
H          -1.74748233976849    0.28474452734265   -1.37728000865979
N           0.74027837596482    0.65598008586038   -2.98709842229982
H          -0.22747308800988    0.24291416985125   -2.67046932205015
H           1.49365401812256    0.10926301093478   -2.40347787442963
H           0.89519290057922    0.53409478971185   -3.98278553386531
H           0.79729714677562    1.63663249636548   -2.72770661557532
