    26
        -50.46095755  Gyration_radius:  2.41785665602 Dipole_moment: 4.507
 S           1.25753837693065   -0.24139472419211    1.15805578553000
O           1.35681917749204   -0.46775475957618   -0.28669965888874
O           1.16337122835192   -1.45912756466830    1.90684327279558
O           2.26668225469611    0.71770267927239    1.59586210468894
O          -0.11449713812691    0.55714865301542    1.35174589011418
O          -2.12240035527239   -1.79423097962926   -0.81975112642543
H          -2.76325051218570   -2.44898406619866   -1.10000518398018
O           0.67180858991585    1.58533501962266   -1.74057009010115
H           1.02829184236310    0.74402200196977   -1.36890606659298
O          -1.49992041039006   -1.51629316285479    1.84450823497060
H          -0.63065661995337   -1.93353569807491    1.97430342861038
H          -0.75306379032191   -0.16380715450916    1.64870079236000
H          -1.79688607078711   -1.72772207525205    0.93793872489625
O           0.31835495323994   -2.59512014067562   -1.38975921753716
H           0.78358835593521   -1.87694286109623   -0.89856216116183
H          -1.23194186051402   -2.13310630918891   -1.09016163803487
H           0.68668241012545   -2.58294634675307   -2.27501370301154
O          -1.78150361847539    0.99984277084241   -0.86977911671907
H          -1.38375090596668    0.99431242335072    0.01220575820367
H          -0.30294252216725    1.47569400193455   -1.66176013969838
H          -2.05379579426476    0.08189424901384   -1.01928019159846
N           1.38252439014086    2.79535399202233    0.42145289820517
H           1.08059659604151    2.40047190969432   -0.55836518392112
H           2.04979772698193    3.55506385325693    0.33302888346539
H           0.56111438335089    3.09138628556359    0.94093370047501
H           1.82743930288240    1.94273800308107    0.95303401335506
