    26
        -50.45180381  Gyration_radius:  2.42986128479 Dipole_moment: 9.403
 S          -0.54041700721985   -0.69122844730995    1.88374760282204
O          -1.63836754607751   -1.40254464232723    0.90259940408361
O           0.31980217576724   -1.76698465708965    2.31309757400595
O           0.15235324627426    0.21367386472887    0.96786941371308
O          -1.28942058637986    0.00179181946323    2.89589802970850
O           2.06891674361373   -0.69479993960585   -1.38576630461122
H           2.60823839714096   -1.33340228347385   -1.85530269500242
O          -1.15085101843999    1.84448499519137   -1.43730685894123
H          -1.39201937822373    2.55627200147785   -2.03089703195430
O           1.30729301040382    1.98124425773972   -0.55396930295305
H          -0.23085357692819    2.03856724840888   -1.10196975179574
H           0.98191369565195    1.45217137794955    0.20353694901744
H           1.83892440180812    1.35547787428030   -1.05912495421403
O           2.56122165424314   -1.30926706005869    1.07955003114975
H           2.23186229950438   -0.88090264605754   -0.40910406192310
H           2.87988398956791   -0.55290636874462    1.57608584640794
H           1.71839478500910   -1.56985965629912    1.53474048801267
O          -2.73794986165695    0.94606432154588    0.87713957198766
H          -2.15298737104358    1.42954067094289    0.27775932707796
H          -2.30806993480955   -0.67736718311159    0.86258831165004
H          -2.30062489360127    0.93056660651520    1.74999967690621
N          -0.59286166890347   -0.79106810286496   -1.48238628644551
H          -0.95798986812193   -1.36629776804642   -2.23496968564178
H          -0.93088061945416   -1.13221937433012   -0.54462666784821
H           0.46722451650369   -0.78366597671827   -1.46222755794262
H          -0.91273556462776    0.20265905779550   -1.56696109726500
