    26
        -50.45556825  Gyration_radius:  2.43277280535 Dipole_moment: 7.582
 S          -0.34870623950664    0.20889130451182    1.87432083935687
O          -0.88983583948930   -1.11472193479523    1.63331088321330
O           0.88540776649316    0.17471835658985    2.66942300028410
O          -0.09400024875220    0.95570484675770    0.64933866208264
O          -1.39895214823252    1.02761195567371    2.69855857311136
O          -2.01524692151868   -0.38878432058858   -1.94404482527738
H          -2.70508938952290   -0.87190149484332   -2.40062846106614
O           2.12199538838074   -0.65800185582763   -1.27739436277175
H           2.71921120697527   -0.83027616324368   -2.00685646632815
O           0.31605345306019    1.06219544703801   -1.94086111114328
H          -0.49247096307387    0.65574623510599   -2.29001454636357
H           0.09559871187740    1.18809561561018   -0.99493678146963
H           1.42298971461868   -0.01439740357564   -1.62342601603238
O          -2.98862322926267    0.24736628522866    0.67305753756569
H          -2.72453798453548    0.34343610175693   -0.25593659762741
H          -2.50407954405991   -0.53385318422061    0.97992043361402
H          -2.17474232567719    1.01963444846398    2.10675792744117
O          -0.34113266621038   -2.08274719796687   -0.77195217030035
H           0.57140908630149   -1.80026728134818   -0.91036327896054
H          -0.54608303925745   -1.84662799204185    0.15652331388288
H          -1.42975170389531   -1.07170889767072   -1.52740189533561
N           2.54736054052139    0.87213275591693    0.89445374634304
H           2.48565834406752    0.17478056924937    0.10896540582262
H           2.08844431158948    1.72430993423165    0.57430269169198
H           1.89555716148781    0.52065294464224    1.73233831386137
H           3.50356655762091    1.03801089534614    1.19254518440559
