    26
        -50.45831563  Gyration_radius:  2.40261167565 Dipole_moment: 9.937
 S          -1.74197998364788    1.20762710547136    0.20493043566706
O          -1.54180746174538   -0.18875889126732   -0.20897145428519
O          -0.93993181311092    1.46236800618113    1.42564851659982
O          -0.97441325203339    2.08578414622128   -0.86246194275304
O          -3.10525515725030    1.59529358238644    0.30460396460543
O           1.48464836339517   -1.36583239327778    1.85159246318167
H           1.96467651144706   -1.69752346905258    2.61113508812590
O           1.43755422495404   -0.04493021041248   -2.02165348626069
H           2.18299974627552   -0.30585153536077   -2.56334286028053
O           0.36958058220822   -1.97596663456606   -0.66088087317562
H           0.83522701829581   -2.04292535263037    0.18361795647503
H          -0.42873586783914   -1.43576359633671   -0.47918991150011
H           1.07183770071186   -0.87903469488553   -1.60708165271015
O          -1.26867301136117    0.40626554646660   -2.82189682880349
H          -0.31736019686594    0.22991032292231   -2.85834794079880
H          -1.60058862836762   -0.10974442057721   -2.06862474989478
H          -1.17574531511909    1.67774405206679   -1.73779777062296
O          -1.01639274195256   -0.96257274874789    2.45206989377566
H          -1.05896958809307    0.00046173476824    2.26574238043652
H          -1.58178500475714   -1.35121432029136    1.77682254997098
H           0.53117729484557   -1.26563911461067    2.14673406208031
N           1.40049658213031    1.00029269220941    0.52404044574100
H           2.05590132505370    1.74857819266223    0.72442617204704
H           1.37324663904512    0.80296162223096   -0.49693763054170
H           1.64309188067204    0.12605852806865    1.03889896348069
H           0.40120014311871    1.28241185035773    0.87692421944214
