    26
        -50.45556812  Gyration_radius:  2.43276098864 Dipole_moment: 7.580
 S          -0.18582410354334    1.82549208697985    0.55821688134832
O          -0.70096600656910    1.89219026126430   -0.79572948704777
O          -1.18546375314458    2.57428022314036    1.50266301028115
O          -0.06723067688442    0.46245780609301    1.05951306402383
O           1.11514766213593    2.49241239045636    0.69706963737783
O          -2.16759676511538   -1.63577562913702   -0.78390242959079
H          -2.88010881975983   -1.92360812554327   -1.35601774792083
O           2.01896988635390   -1.32606807803095   -0.85642745969101
H           2.55337321766830   -2.06298207522489   -1.15612833173446
O          -2.92306053041396    0.89494893177229    0.32237909148686
H          -2.01039530965059    2.07061776415216    1.36727089820588
H          -2.38768157547742    1.29680898842974   -0.37840216269151
H          -2.74539273992491   -0.05607444044197    0.24453093891408
O          -0.33929670343785   -0.32847901683931   -2.19610679618769
H           0.54705020789604   -0.60370907227219   -1.93088857057374
H          -1.52425595612148   -1.15525429640840   -1.36525807513385
H          -0.46741259896921    0.55394172631066   -1.79013366430251
O           0.10470195718466   -2.12829790677760    0.67776554121491
H          -0.71785863682072   -2.31633419969033    0.19955385907817
H           1.27098975241321   -1.71967093238127   -0.30154931162879
H          -0.03356385104978   -1.20634042170262    0.97797751029609
N           2.58739562573603    0.46872315278789    1.06619809694064
H           2.07554710330957    0.03769460213643    1.83525315119103
H           2.02460029275339    1.41546001612929    0.87216213110880
H           3.56074486632143    0.63925839001397    1.29892298312356
H           2.47758745510829   -0.16169216521591    0.23106722191109
