    26
        -50.45556818  Gyration_radius:  2.4327343762 Dipole_moment: 7.579
 S          -0.66363384216207    1.74422449008659    0.44271019034258
O          -0.91416815368959    1.70190815357290   -0.98505550275474
O          -1.95778672065719    2.26428565777407    1.15442318569238
O          -0.36254811243256    0.43645586554530    1.01041849304376
O           0.42003337244210    2.67057359448373    0.79500279141892
O          -1.59134480016003   -2.05543363458568   -1.10856509030647
H          -2.10717608487958   -2.48583284618216   -1.79146498704656
O           2.37623709707021   -0.86816191184799   -0.41453902330019
H           3.09873257662138   -1.47525920968464   -0.58166820348090
O          -3.05233776544042    0.25743939458156   -0.26183884016455
H          -2.66950224008966   -0.63447352236401   -0.26750030353173
H          -2.61916106954011    1.59811833671154    0.88747770704830
H          -2.48864110869204    0.76390821702777   -0.86608045836824
O           0.41444847860321   -2.05838804623746    0.76743223958332
H          -0.24498469506181   -2.41597031963642    0.15264518588615
H           1.63491148654417   -1.41165610922683    0.00638766075511
H           0.03292193656896   -1.18700093079159    1.00046336580212
O           0.16031759421405   -0.39019278764463   -2.20649747326435
H          -0.96309868245466   -1.44945121621779   -1.57835754169581
H          -0.22293567559641    0.44472041489097   -1.86600979997874
H           1.01781686717678   -0.47207476987064   -1.77091288063979
N           2.18223167618977    1.00247968491569    1.50998329670652
H           1.48318377004320    1.80962405154371    1.17794196068462
H           3.03590651189698    1.37369588236383    1.91504632046657
H           1.63286350804436    0.47130617866548    2.18479030423439
H           2.36771406544285    0.36515538212838    0.69376739286977
