    26
        -50.45556809  Gyration_radius:  2.43271378171 Dipole_moment: 7.580
 S          -0.53317463182947    1.72804296153382    0.63854921294318
O           0.62119351606969    2.59899122789490    0.89450317559007
O          -0.97837823446648    1.78899879265913   -0.74024742379387
O          -0.20428869744105    0.37734304316222    1.07510748561532
O          -1.69797807304268    2.23352033632417    1.55487225029976
O          -1.80141032862456   -1.93230196612359   -1.00354917239073
H          -2.42064088378053   -2.30240904598062   -1.63390533701115
O           2.26341226780566   -0.90342890653820   -0.79321975707536
H           2.93395109944406   -1.51744042417581   -1.09631970922907
O          -3.04809544600332    0.35709940859376    0.18095187315865
H          -2.55469931856454    0.88776313638742   -0.46267117828721
H          -2.70208145621893   -0.54240505920978    0.06588103716515
H          -2.41333048579969    1.60500054468929    1.34103351197533
O           0.43993643078915   -2.11660602508716    0.57250588533743
H           1.56745561266991   -1.45347882468107   -0.30814172645387
H           0.12603122264340   -1.25260614378487    0.91033095240422
H          -0.30994147392721   -2.41355918524203    0.03378731148567
O          -0.15736556155091   -0.24529703756996   -2.22712044070165
H          -0.45993240607449    0.57510874603061   -1.78518646325360
H           0.74792047433551   -0.37987237564858   -1.92036600405719
H          -1.22199255578457   -1.31316616615380   -1.51705806081787
N           2.40384710762176    0.84010169527520    1.25160642375643
H           2.45141683303735    0.25314078105423    0.37977888066209
H           1.69477065761221    1.68587410834927    1.07130793208255
H           1.93518520950669    0.28054017034739    1.96326819109781
H           3.31818914157790    1.16104620788715    1.55430114948919
