    26
        -50.45556817  Gyration_radius:  2.4327491407 Dipole_moment: 7.580
 S          -0.55798749749143    1.53842247767972    1.00001346832897
O          -0.11137845524443    0.15864542939984    1.14147385867476
O           0.56693525537504    2.43071825720813    1.30804418300503
O          -1.14764750616297    1.81694855220017   -0.29522746546529
O          -1.64671808639389    1.78117912494329    2.09905213141100
O          -1.78715861673312   -1.84426500753468   -1.18117331800310
H          -2.44699678738943   -2.13788015361981   -1.81062541043097
O           2.21489914472139   -0.57316199395821   -1.15481897948629
H           2.88360566606866   -1.07029942578247   -1.62830099629439
O          -3.02695966370014    0.09151802646914    0.52597641051654
H          -2.63327666558632    0.76573581317886   -0.04813892374327
H          -2.64650687861101   -0.74387199364628    0.21072273113978
H          -2.34460978247228    1.15086077321579    1.83817373459222
O           0.61343100892538   -2.14686599287874    0.11812423405166
H           1.60452438567733   -1.25246387222949   -0.72081910212543
H           0.28903857400953   -1.38481166143022    0.64090922328282
H          -0.17096089182470   -2.39486712852077   -0.39557969558872
O          -0.37568925076311    0.15481745980642   -2.20944159563563
H          -1.29963920554097   -1.10058709647857   -1.61943583209322
H          -0.67545727128312    0.85605146962191   -1.59438769044458
H           0.56272818830530    0.03387341267332   -2.01865700309711
N           2.47106003460140    0.77186598899411    1.16154520656558
H           3.39294845215342    1.09792335149159    1.43448870218423
H           2.10978823099388    0.05888359644844    1.79428544189899
H           1.70187128556366    1.58221073375688    1.21011079712828
H           2.46015633280173    0.35941985899006    0.19368588962759
