    26
        -50.45556823  Gyration_radius:  2.43279487222 Dipole_moment: 7.578
 S          -0.05951904395472    1.67914242119867    0.92535731228458
O           1.03622410843803    2.56863924344068    0.51957562402376
O           0.32418187507829    0.78057227961607    1.99698810959897
O          -1.22163065227093    2.59292171646803    1.44154408214054
O          -0.55741815013628    0.98387904059646   -0.25445495703832
O          -1.62606073815420   -2.21729925179934    0.65386447645006
H          -1.92522817683549   -2.94954634856211    1.19435877332748
O           1.78900013153628   -1.06068022247708   -1.49885135220108
H           2.21807416591298   -1.67820727228139   -2.09303821603108
O          -2.29154359655517    0.19899998329127    2.03929137137404
H          -2.31909929069635   -0.52624043220849    1.39484860167471
H          -1.37821320364819    0.19678678782597    2.36345515934399
H          -1.90734146998571    1.93888717429951    1.67494405345226
O          -0.77861099018297   -1.16903814946639   -1.73899252255418
H          -0.85449128936168   -0.32032270031427   -1.25607024977430
H           0.79346786528632   -1.19108301432569   -1.61768688819768
H          -1.19606596515204   -1.79440052083821   -1.12637208983793
O           0.91660985900100   -1.67237752335387    1.18755834981884
H          -0.67858547442323   -2.06173204505836    0.90040982214816
H           1.40325897030351   -1.51327872630642    0.36929948532461
H           0.77969118593122   -0.78624425371307    1.58237438196880
N           1.53437828255119    1.60481060898578   -1.76561672726445
H           1.78708819098289    0.59178958714080   -1.63616028442569
H           0.59320863932986    1.63026195555968   -2.15663057994276
H           1.41340468092519    2.07186098462884   -0.75681843624612
H           2.20522008607185    2.10189869765993   -2.34317729942015
