    26
        -50.45556805  Gyration_radius:  2.43271664535 Dipole_moment: 7.581
 S          -0.57681885001944    1.82460395061129    0.12678621903244
O          -1.16575685815283    2.84925869982268   -0.90043529186630
O          -1.68050174509133    1.13700448384905    0.76872675263307
O           0.29905190048594    0.93041994612762   -0.61915069244687
O           0.23587165281317    2.59247460061836    1.07891566064429
O          -1.42633758390672   -2.00972408799824   -1.38352621662403
H          -2.15097367360340   -2.61835829682877   -1.53270708917077
O           1.64586332863581   -1.37193815784358    1.40605993630195
H           2.19541298266830   -2.10173998935868    1.69567421367683
O          -2.44289742335255    0.64139947281888   -1.75240752383987
H          -1.67340884893648    2.26921963297251   -1.49905838421718
H          -1.97308049488971   -0.19212573056969   -1.91553649522252
H          -2.53938980266152    0.67742195613515   -0.78874499701352
O          -1.23584476861021   -1.43941761311884    1.20191938214896
H          -0.31126177347079   -1.45094714936598    1.47894373904049
H          -1.47586622625788   -0.49126561099596    1.14440246254894
H          -1.40969872852331   -1.83465721631057   -0.40790002723669
O           1.25321162841507   -1.45733755093820   -1.14358273782748
H           0.93674692264806   -0.53078811576868   -1.11993718578880
H           1.50145126786204   -1.49655408694859    0.41316754915066
H           0.45213043133666   -1.94388542171919   -1.39291132230175
N           2.34807009261986    1.20082374068908    1.04711796413814
H           2.09032008418185    0.22396642200261    1.34074230822685
H           2.50881505068213    1.17769259793470    0.04073679676823
H           1.44625481021129    1.85323329178976    1.15583178508812
H           3.14863661491548    1.56122022239314    1.55687318416007
