    26
        -50.45282966  Gyration_radius:  2.46194237557 Dipole_moment: 7.475
 S           0.05722600393216    1.99352598479829    0.84820508399989
O           0.88306569236427    1.38865592514318   -0.37330699594405
O          -0.89954042081296    0.91340651035706    1.21244826979537
O           1.04553555482128    2.14924520242611    1.89850854093335
O          -0.61966005152571    3.16342459153997    0.37551221977221
O           0.88948764255798   -2.33352637046374    0.71731608462215
H           0.89266835013877   -3.28702980859133    0.80818101179362
O          -1.21961349329325   -0.63029510194693   -2.35748389565910
H          -1.39285088686370   -0.88864940213001   -3.26356589782323
O          -1.52074898346766   -1.49577258007182    0.22084234745884
H          -1.48015094721711   -0.59636924375375    0.59931940087927
H          -1.60669509464280   -1.34307443341872   -0.73534329885470
H          -0.06394841966124   -2.07216661612183    0.52679133174632
O           1.34226825057526   -0.99218027337650   -1.69325916815632
H           1.34456344699900   -1.59186005729050   -0.93064494938003
H          -0.24864565299479   -0.76160680378745   -2.21359218959790
H           1.47568329901677   -0.11067006182835   -1.31559169394446
O          -0.84953227933245    2.13718384972792   -2.11520187597789
H          -1.33195300517690    1.29491169177263   -2.13580250921570
H          -1.16855770017193    2.66992312800626   -1.36817929928474
H           0.36897171634290    1.69656543261744   -1.17231282635623
N           0.85544355736113   -0.30554864266068    2.53044724104900
H           0.78309686947625   -0.56483183187213    3.50798228619531
H          -0.08251276352354    0.04532996098584    2.10043004277392
H           1.36131788382604    0.61119381100138    2.38929833927232
H           1.18508143127153   -1.08978486106153    1.93900239990462
