    26
        -50.45282968  Gyration_radius:  2.46192844604 Dipole_moment: 7.475
 S          -0.96416075788792    1.35626335084442   -1.38829775820958
O          -0.50017005333899   -0.15292563377886   -1.60551050310032
O          -2.35701260542965    1.43133038331094   -1.71156094720288
O          -0.72041279915036    1.60853647997504    0.05792589857525
O          -0.03147657539301    2.12940835493958   -2.18605863602141
O          -1.26504188172190   -2.06405685551275    1.25849695030269
H          -1.55162817183735   -2.93456798683279    1.53742742466196
O           2.39676908094612   -0.24312915666043    0.97321847028304
H           3.06761927430180   -0.44114425242505    1.62758021211421
O           0.10377086992920    0.13600680525783    2.13766227838763
H          -0.41863653909715   -0.68102952501078    2.07098212453499
H           1.53851639466572   -0.10858845559137    1.48206911591133
H          -0.32340832933678    0.74029543147894    1.50042203675449
O           0.87283539607986   -2.18541157822953   -0.33860868171388
H           1.56495751217123   -1.65840133739873    0.09080107503597
H          -0.50000639914955   -2.20807670240958    0.64639434651175
H           0.51647969728801   -1.60972859472062   -1.03074445619909
O          -2.77589070589012   -1.11415562058149   -0.90277499415931
H          -2.53282041743776   -1.26266789416630    0.02530085292502
H          -3.04812642551878   -0.18877043642577   -1.01759987500467
H          -1.34037994389496   -0.67361399128579   -1.46305644347096
N           1.72005656297034    2.03736319925218   -0.34642864741493
H           2.21984170096491    2.88172758947598   -0.09109833126302
H           1.38086505237133    2.05260794688391   -1.34703641659115
H           2.22672089474818    1.17920964347418   -0.06285226205841
H           0.72073916865495    1.97351881614241    0.08334715641161
