    26
        -50.45282963  Gyration_radius:  2.46193450549 Dipole_moment: 7.476
 S           0.77682004960994    1.99774154198808   -0.32178267503477
O           0.33188572892459    0.90090103400643   -1.38905309146323
O           2.22118781976272    2.04531648366169   -0.44709586859750
O           0.03318063957686    3.19108069690486   -0.59236821765542
O           0.40406148049426    1.40248224212966    0.99031098794181
O          -2.61993866363737   -0.69499667500867   -0.30498225123462
H          -3.44002307805860   -1.07420663432315   -0.62339639787349
O           1.01721952098408   -2.27787491257515    0.72816991077444
H           1.04774721260924   -3.13415517483672    1.15635096348516
O          -2.07964942860879    1.77613045075566   -1.51112794146470
H          -2.43726543799843    1.15745356213152   -0.85390147104141
H          -1.68248350209559    2.53493407676674   -1.05277361323486
H          -0.59767798014907    1.17733323627640   -1.62760906071971
O          -0.85878951797228   -0.82162402126902    1.78534125054517
H           0.27670597662646   -1.76489277715092    1.17770632845060
H          -0.50235101461938    0.07375899980980    1.62708644808693
H          -1.64483847725154   -0.86418432308533    1.21497141751313
O          -0.49744800947787   -1.72686351501569   -1.55574232992989
H           0.06670597920952   -2.10984900376655   -0.86561104375742
H          -1.89821456250590   -1.10450205943603   -0.84563352184331
H          -0.08340804123003   -0.87865557613874   -1.77175515450844
N           2.48209383837965   -0.00562972238131    1.03197907279945
H           3.17928107961517   -0.00366212335388    1.76814436267034
H           2.73393355767992    0.63701424233984    0.23215721886696
H           2.20116061521989   -0.96476057580905    0.75881425315354
H           1.57010424491281    0.53171053737850    1.29180044407063
