    26
        -50.45282977  Gyration_radius:  2.4618837134 Dipole_moment: 7.474
 S           1.53184100857899   -1.09300548545383    1.07406389666967
O           2.88225538637247   -0.71124624915636    0.70664371008326
O           1.35756685296001   -2.22619578486158    1.93181032568579
O           0.79050139756456    0.09605438593667    1.57500347414811
O           0.83357887677826   -1.43127260220596   -0.31810801065844
O          -2.62036016825275   -0.75048560229998   -0.12286198228099
H          -3.47543119953492   -1.06125258002173   -0.42290459855263
O          -0.05923261560686    2.17974492681805   -1.41230489034029
H          -0.42132454053361    2.99357356964376   -1.76447502903070
O          -1.00281815054423   -2.85650364316504    0.77436081762911
H          -0.40187000650787   -2.80110524100812    1.53558227790951
H          -1.65617459434961   -2.14066768500693    0.83062627282672
H           0.12630655284723   -2.08961795821780   -0.06575230355290
O          -0.93096706863954   -0.37001789770216   -2.15695674066147
H          -2.05441834031333   -0.67506506385494   -0.93198645145182
H          -0.65606601998944    0.55933963983474   -2.11378272422273
H          -0.19347961230182   -0.86470353804935   -1.77113139168268
O          -1.33414788113631    1.50170979924159    0.74914839383074
H          -0.59102327408587    1.97071360116029   -0.58335743068906
H          -1.99310023896016    0.82383093885622    0.52285167251583
H          -0.63798525971981    1.00420971849769    1.21994359831840
N           2.12625437931845    1.64202711341900    0.11550591296328
H           1.52909741233110    1.87755274195585   -0.69788351862101
H           2.66834514977269    2.43581052829542    0.43802297809576
H           1.47294950196449    1.21945244091125    0.87793817487446
H           2.70970244198665    0.76711993642616    0.01000356618943
