    26
        -50.45282984  Gyration_radius:  2.46179902698 Dipole_moment: 7.472
 S           0.20539407854008    2.14250722234545    0.24742519082051
O           1.58224095820563    2.59937528881445    0.22867625359636
O          -0.83497366268277    3.12627601365591    0.24087781414719
O           0.06502165393471    1.28472105680555   -1.08853803064166
O           0.01847883044943    1.15000701993269    1.34010301724116
O          -2.33814500302847   -1.25394564793503   -0.63596237833999
H          -3.02835724822522   -1.73856217597733   -1.09042259003247
O           1.60095393744947   -2.03718496545209    0.18724165418598
H           1.86545161551231   -2.93641720050320    0.38446930134898
O          -2.49405134262401    1.49819083618719   -1.14005957271453
H          -2.66693868740422    0.65807873692283   -0.68515534125819
H          -2.31319776900140    2.18762913445378   -0.48006073567727
H          -0.90624978315058    1.36027526709062   -1.30848547311093
O          -0.58977049266948   -1.45509109616291    1.45969578131744
H          -1.33999863076886   -1.55149813690493    0.84913690594578
H           0.75310879110766   -1.87318653150822    0.70479402152513
H          -0.48961349267362   -0.48850000332029    1.55751862406420
O          -0.02639016518992   -1.32899783703980   -1.97226651661247
H           0.14145638594960   -0.37597937897201   -1.93944638179186
H           0.62605666980528   -1.71667039612323   -1.36790435458210
H          -1.53744783648330   -1.30386833709349   -1.21659734082804
N           2.40046657414747    0.37790401315296    1.15165541512208
H           2.38635557210542   -0.51453945732225    0.62544445179158
H           3.08008970709829    0.37062136589862    1.90402269528493
H           2.45898309571848    1.25161080027549    0.55924673645848
H           1.38107626387694    0.56724438877957    1.48459085274055
