    26
        -50.45282982  Gyration_radius:  2.4617443698 Dipole_moment: 7.472
 S           0.00167392286876    2.16415245507038   -0.10614128693533
O          -1.07319783211071    3.05528078132762    0.21101314776079
O           0.40354642140587    1.34510927343613    1.06934001710080
O          -0.55013153664339    1.09866706175488   -1.15519888924964
O           1.18092471888841    2.71241872217156   -0.74925385411194
O          -2.20706557225115   -1.50785675145176    0.54524932541811
H          -2.95118427998791   -2.10748166273794    0.47829706894617
O           1.79483270822842   -1.85834414773342   -0.26867345040203
H           2.23235008551696   -2.69354762399729   -0.09992426794453
O          -2.91604309086002    1.11057244963107   -0.15585234893716
H          -2.77751199963411    0.34220772062594    0.42127386554688
H          -2.57799559742136    1.90702647137946    0.28565408209109
H          -1.52820802983862    1.06620670153013   -0.95590010235392
O           0.24681725040278   -1.24581261646117    1.72781305629291
H           1.21411034891302   -1.67763969145390    0.53363329812297
H           0.24855519514053   -0.27122725939031    1.66442520560621
H          -0.66568275881747   -1.49284829620486    1.50147457326944
O          -0.64218147918751   -1.62156867255065   -1.61632027912100
H          -0.60330850195496   -0.66562431796409   -1.76521805279384
H           0.24350789054225   -1.85942557699800   -1.29970161480921
H          -1.70910371440612   -1.58943809446618   -0.30694823977199
N           2.58760071150379    0.73108219377503   -0.00679312390064
H           3.50682022574759    0.89275400880620    0.38926281721970
H           1.77296370106894    0.89466750775953    0.69711658311362
H           2.28652329416728    1.50238852447320   -0.66416155134548
H           2.48138794871872   -0.23171915033225   -0.37446592881227
