    26
        -50.45282967  Gyration_radius:  2.46192308368 Dipole_moment: 7.475
 S          -0.49662361508449    1.93640730445750    0.83662688400755
O          -0.89762860650456    1.30870064599011   -0.57235678196327
O          -1.70679482975240    2.31600715869208    1.50119376677706
O           0.19644747671672    0.82709661176974    1.54638890227430
O           0.45713264634244    2.97620954536247    0.50005350194790
O          -1.74441814952554   -2.09085482956938   -0.17151138746480
H          -2.33638188108963   -2.77122864873433   -0.49459848835723
O           2.13137088073831   -1.06878399492507   -1.03199799836093
H           2.76173451014966   -1.76068499943167   -1.23528876091233
O          -3.09194019317063    0.31680354955423    0.32064683584096
H          -2.89862121571400    0.91135923409824    1.06413989175204
H          -1.81793494898051    0.95537193826709   -0.41230375160930
H          -2.72685482249891   -0.56229700168474    0.51151502110689
O           0.69381633477973   -1.75192690628921    1.02325794460234
H          -0.15780643535470   -2.09777185788248    0.70686473271961
H           1.60827651203909   -1.39026538237970   -0.23408870450241
H           0.47003034581317   -0.87329355102930    1.38617963304210
O          -0.42025065009237   -0.89800188625052   -2.16122495780085
H          -0.61268963377458    0.00919532063553   -1.88296255925600
H           0.52361520475306   -1.02029559286251   -1.97317989344920
H          -1.32973132518280   -1.68216896153940   -0.97260421391019
N           2.34221765181962    1.28006623048176    0.32434453492421
H           2.41945038379130    0.56573392621252   -0.42216319842523
H           3.23601718838660    1.48092735311921    0.75881835840828
H           1.81284625470516    2.15534483117590    0.05977972864652
H           1.58472089669035    0.92834994276173    1.02447096996034
