    26
        -50.45282976  Gyration_radius:  2.46188114436 Dipole_moment: 7.476
 S          -0.31933980344988    2.10864684358328    0.38349648363691
O           0.89286963127112    2.90182548822173    0.30736246838022
O          -0.34915934292060    1.31470421421588   -0.99812431123850
O          -0.16202108241913    1.04515055159297    1.41240056405361
O          -1.56994184770967    2.79320920702561    0.51599212439827
O          -1.99204581208065   -1.77573498853207   -0.56863390323943
H          -2.57320102286133   -2.39629965513533   -1.01008516801550
O           2.07103938057044   -1.56719275782718   -0.06324860215049
H           2.56845223463390   -2.37748481879333    0.05287080354612
O          -2.87489859844041    0.86818875136017   -0.86258010120571
H          -2.81877264853886    1.54602398990960   -0.16901785943479
H          -1.32291436978448    1.15004672890990   -1.14660296926456
H          -2.79346488836307   -0.01042526684771   -0.45775998665297
O          -0.08463146377603   -1.63168688519887    1.38790482102988
H           1.25399298092701   -1.65275757151070    0.51877642585554
H          -0.22283171231968   -0.67804089542721    1.54697118216843
H          -0.83369149832970   -1.88502363890056    0.82250413548664
O           0.14731310134614   -1.18641352195424   -2.05590800274170
H           0.07253434115372   -0.22522836539523   -1.96641141692957
H           0.92338940796568   -1.42548767409014   -1.52515865079579
H          -1.25487488928847   -1.58852189113347   -1.20284157495411
N           2.31417399315287    0.91774081203241    1.01615521619106
H           2.10551580362080    1.80660785341077    0.48380609046133
H           3.03146804203587    1.04488312471183    1.72135890814745
H           1.30930825719245    0.82392823625255    1.42604662726448
H           2.48173182641219    0.07934211951945    0.43072672600325
