    26
        -50.45282957  Gyration_radius:  2.46194847886 Dipole_moment: 7.475
 S          -1.28511154378507    1.73506221504173    0.19023937678612
O          -2.66925426496309    1.83928158988132   -0.16119003730140
O          -0.67913963215742    2.82821654366041    0.92631869984781
O          -1.12808385394034    0.48088181339971    1.16101826064831
O          -0.44247515214685    1.39242328890475   -0.98770701212451
O          -0.86737764947538   -2.47788688369499   -0.73998217265336
H          -1.11251348912666   -3.40400977788139   -0.74254491124008
O           2.54005025725579   -0.45499404804435    0.30791028702521
H           3.39201355775919   -0.85672431158225    0.13408473323326
O          -3.01036187171414   -0.83712807349346    0.01381926298764
H          -2.42706657993229   -1.33410477469758   -0.58235182289072
H          -1.89032545901909   -0.10874985097607    0.89859841224906
H          -3.19750416902091    0.03333487371700   -0.37462672068142
O           0.39922459036950   -1.79201998289463    1.50923626873512
H          -0.44201118508773   -2.30718938324871    0.13797202953162
H           1.26213128405775   -1.43972115009642    1.23995826749493
H          -0.14018173993796   -1.00995098375986    1.69628906000195
O           0.98544420948907   -0.73946378939784   -1.75606325404232
H           0.40760191478442    0.04135728171561   -1.65510596347455
H           1.98740622162774   -0.59751534230494   -0.52149987719690
H           0.39103285298149   -1.49199875871427   -1.59675485632175
N           1.64937549033189    2.11339634103714    0.19823655558066
H           2.30351973584041    2.81231211910723   -0.13589870376054
H           2.12543469386919    1.25124459961994    0.51998654958066
H           0.93523536187027    2.51206737278936    0.86677306332602
H           0.91293644007359    1.81187905191153   -0.54671549534201
