    26
        -50.45282960  Gyration_radius:  2.46192838714 Dipole_moment: 7.475
 S          -0.06962019872343    2.10804323819254    0.49942586093659
O           1.22639007844344    2.75803491800733    0.45494451077562
O          -1.23166950506511    2.92449228430177    0.68190082597148
O          -0.19681684604250    1.40079289967715   -0.92309806646067
O          -0.03364019855295    0.97779865990797    1.46696632604746
O          -2.18720302084005   -1.49701732058438   -0.64380857928059
H          -2.83824838882316   -2.01993188452040   -1.11334989425319
O           1.87308960065158   -1.79379845932170   -0.16689164240274
H           2.27163490512466   -2.66229597070258   -0.10094638304793
O          -2.75654866883415    1.24266501818174   -0.78697804440702
H          -2.77582710210636    0.33916142347182   -0.43200807443779
H          -2.62022410660952    1.86963982025293   -0.05766094052590
H          -1.18375570831140    1.35879801064915   -1.07057581470136
O          -0.27034303165782   -1.68499684355206    1.30002352468701
H          -1.04564426096875   -1.81797060467365    0.72888083927685
H           1.05401603404791   -1.81487805304912    0.41817768050920
H          -0.29549754704283   -0.73186766129806    1.51141750075302
O           0.00151320226036   -1.08031436529455   -2.11670672268387
H          -1.43470724076681   -1.36258919089838   -1.27354030558280
H           0.03988834838514   -0.12324600928443   -1.97484908840966
H           0.74576176859132   -1.43693952201168   -1.60667808816118
N           2.40881255402529    0.58504947181177    1.03993053675177
H           2.47626178889988   -0.23387933038557    0.40890540853348
H           2.30515856223905    1.51971384788132    0.55853456110777
H           1.40001787040111    0.58723438180470    1.45276094328234
H           3.13720111127162    0.58830125142919    1.74522312572433
