    26
        -50.45831561  Gyration_radius:  2.40250735946 Dipole_moment: 9.939
 S          -1.07344210631433    0.23641563269643    1.82373752475901
O          -2.14584153907248    0.31363720558629    2.75252015143534
O          -1.49686785534953    0.20930749093824    0.41616613690806
O          -0.10967353599411    1.48264276543130    1.95776719412001
O          -0.13514513568734   -0.88680887028034    2.06109441314432
O           1.11537515370574    1.85456646968025   -1.21438457078902
H           1.64103267741248    2.26135314359164   -1.90382370217402
O           0.95061290944846   -2.23503617902768   -1.26352516761799
H           1.31764761014827   -3.07888586360247   -1.52907569910924
O          -1.22983357611862    2.86701134027834    0.06708993208747
H          -0.44004264718608    2.80908122574762   -0.48998208314124
H          -1.67747081884338    2.00972640609956   -0.02540784761554
H          -0.53418010849300    2.20518194475644    1.43703062612189
O          -1.10658813333059   -2.58118305276427    0.29377580460749
H          -0.76803971477673   -2.11609962961997    1.08943490265869
H          -1.83731804873543   -2.02810128311900   -0.00093714624506
H           0.14983706697794   -2.44560337571271   -0.69703900151490
O          -0.52606075028261    0.02987864851380   -2.04875687395416
H           0.47841132192413    1.22745657513703   -1.66425688031924
H          -0.05829393672569   -0.81601877822984   -2.05807671711490
H          -1.01584186029301    0.05049230330338   -1.19907363176412
N           1.72625772165964   -0.26345401895534    0.43293000236303
H           1.53365844303504    0.65356193191656   -0.01900930567355
H           0.96359223843870   -0.47347900504566    1.19230316628920
H           1.63358744563399   -1.02409829012724   -0.27503141412765
H           2.64462717882086   -0.26154470718924    0.86453019666508
