    26
        -50.47350530  Gyration_radius:  2.4065442944 Dipole_moment: 5.128
 S          -0.66868594285580    0.66184781449342    1.53850370419004
O           0.00292836968224    1.38246982275161    0.44569364615415
O          -1.76833299619868    1.60819361648063    2.09842092559268
O          -1.32185075688247   -0.53572698162134    1.01840160754626
O           0.26347936015946    0.36458392456278    2.60621857344909
O           0.62176194130056   -0.81215421050633   -2.31337161933843
H           0.48423381834017   -1.20213779045996   -3.17780265570431
O           2.34261055436662    0.58289388482710   -0.55599454360856
H           1.57151469064072    1.06199001940022   -0.18589225626593
O          -3.20467291638984    0.99254781020314   -0.02912215863425
H          -2.45619624138908    1.59161821119585    1.39610507060905
H          -2.77003214636647    1.21762269982428   -0.86361039229610
H          -2.78923770087770    0.15582724822594    0.24383613533652
O           0.27192412397523   -2.35923191285996   -0.03048174597978
H           0.41300631268635   -1.95247632065501   -0.90375229043999
H           1.98494612087937    0.09010276021242   -1.30939509463604
H          -0.44676395502208   -1.82578605007255    0.37518616605769
O          -1.06542793870570    1.24824579618124   -1.87921091194791
H          -0.68257705254733    1.31980572701979   -0.95922967576557
H          -0.81939623791329    2.06103434983231   -2.32524186664398
H          -0.06647931922576   -0.11702786334139   -2.20446096151962
N           2.05510889227979   -1.12607891427569    1.42483454351399
H           1.42704983320174   -1.81505945126706    0.90091211411070
H           2.42680196137421   -0.46226622012165    0.68828299535808
H           1.40777598716810   -0.55252697334115    2.03989610489610
H           2.78651125830374   -1.57831097671182    1.96127459597180
