    26
        -50.45462552  Gyration_radius:  2.43336771842 Dipole_moment: 7.029
 S          -0.37194445580263    1.41535921214497    1.29094359447974
O           0.68976306796475    2.40739839646601    1.58125180593192
O          -0.29362349863423    1.00355031051221   -0.09944703700360
O           0.06863098317121    0.16252581048774    2.14204857495185
O          -1.68550138869206    1.83038081098516    1.69868606457653
O          -2.02964553309092   -1.65428983837241   -0.92954163326845
H          -2.70222097658216   -2.32520969136035   -0.80284803315115
O           2.07782485260086   -0.80065913775286   -1.20368390953603
H           2.73157625918256   -1.07947655376163   -1.84608530938538
O          -3.17943031933645    0.56977583584407   -0.07977595747670
H          -2.69143172144678    1.00120891231805    0.65702891765387
H          -3.16913972802138    1.21387084182860   -0.79084499771663
H          -2.42817335950899   -0.80744297639476   -0.59766833484625
O           0.19107183995811   -1.89575699751608    0.59405663331042
H           0.03800008463337   -0.66784712623701    1.57714548618659
H          -0.62994553206261   -1.85176492212567    0.05896164878095
H           0.90485519063183   -1.65000511965806   -0.01276506997253
O          -0.14737926153154   -0.20333135342131   -2.41391576243982
H           1.25762430728315   -0.55706380895049   -1.72934929499865
H          -0.79813740810509   -0.89327332365807   -2.22154160567478
H          -0.29627007302122    0.44893524281004   -1.70254461613193
N           2.53150897860979    0.85462093059409    0.94952976592160
H           2.29746821062902    0.36610395700439    0.06058017412207
H           1.71395850789750    1.66611767520523    1.19946987443024
H           2.45987241125131    0.18607829350004    1.71341453793621
H           3.46068856202284    1.26019464950674    0.90689448331945
