    26
        -50.47350527  Gyration_radius:  2.40655116389 Dipole_moment: 5.127
 S          -0.51879006924124    0.25354399558464    1.70890378933451
O           0.62143022718333    0.72654163014649    2.46630009119272
O          -0.99476491985063    1.23896813563109    0.74261234991621
O          -0.20144838669791   -1.00919664525951    1.02351926170555
O          -1.67612328485813   -0.04762753178808    2.70301566286828
O           0.37292553982144   -0.44086331121140   -2.46270575125276
H           0.17306463239526   -0.43448470350302   -3.39984523245524
O           2.04800361126213   -1.34396276919410   -0.37116519942173
H           1.26978415410242   -1.40377172465528    0.22200567408114
O          -3.29643112988344   -0.05164927692074    0.61922721807244
H          -2.45469113330567   -0.15645732232509    2.11243712351163
H          -2.68126296477514    0.68478974021908    0.45678345781850
H          -3.06285788570457   -0.71362517809542   -0.04655059313728
O          -1.59788605169256   -1.61016342926401   -1.03852505364437
H          -1.08726926090650   -1.37811716494986   -0.21169234970938
H          -0.41296552049593   -0.82163328345803   -2.00870514538231
H          -1.60099702076267   -2.56850436569422   -1.07974090345783
O           0.73353737920421    1.96376982069743   -1.11558181099700
H           1.67533831775275   -1.14579836242461   -1.24309136593500
H           0.63979001917037    1.20239937823345   -1.71512765560693
H           0.00120135055626    1.85854642598432   -0.46893531531099
N           2.45083428013923    1.05659572223275    0.62986383549550
H           1.81474050855097    0.98711204057691    1.47652968000860
H           1.89559440457632    1.59228320750618   -0.11060568854037
H           3.33860878680062    1.48982494356159    0.85663398101123
H           2.55063441665668    0.07148004835416    0.25443995982157
