    26
        -50.44582849  Gyration_radius:  2.49702502945 Dipole_moment: 4.789
 S          -0.67857632799528    1.58048571785116    0.73121049686198
O          -1.69472608839929    0.58091261951189    0.27905737920927
O           0.48374494343619    1.50524005924367   -0.13107645816862
O          -1.35742922452702    2.97130726647617    0.53181061530837
O          -0.37468122264248    1.42450664515557    2.12627038327352
O          -0.74463526024045   -1.97491338689581   -2.19384131688465
H          -0.42540662466190   -2.77709759596473   -2.60995244155081
O           1.43101925276563   -1.91671891732851    0.96119148499380
H           1.58705087374127   -2.57203649510637    1.64294614352563
O           1.32911096261050   -0.53112106650979   -1.58552693419099
H           1.71767922770520   -1.05038663357459   -0.87261982004464
H           0.03319231741244   -1.34961890344086   -2.14175001287857
H           1.02706161911911    0.30207043182738   -1.15998633363124
O          -2.30300326724089    2.11147147299442   -1.79404846448026
H          -2.14355053973799    1.33174191226518   -1.22989285597973
H          -3.25185740943401    2.16281762194070   -1.92871757894196
H          -1.64626890930197    2.94610651622323   -0.40102458057711
O          -1.04464742228460   -1.77831320157381    0.32412661830958
H          -0.06377269774005   -1.81838318485964    0.62319231190489
H          -1.35874226109167   -0.73297839631250    0.37922069303044
H          -1.03279934863218   -1.95543732359749   -0.68769624016169
N           2.17372179564188    0.36576056227392    1.88360677929194
H           2.81763670730945    0.49112999691898    2.65485203400884
H           1.75129485354675   -1.01308329426103    1.35106738084319
H           1.27040032008594    0.77308170218830    2.14569996661139
H           2.49818371056212    0.92345588454843    1.10188078031569
