    26
        -50.44582851  Gyration_radius:  2.49692290019 Dipole_moment: 4.793
 S          -0.89070913455990   -1.36323254908247    0.91720477057614
O          -1.04254912311518   -0.79825121035126    2.22893632399041
O           0.48555221571803   -1.43695623386458    0.46926855070877
O          -1.48659368379877   -2.80525807584182    0.93485064049786
O          -1.70043535939845   -0.61782375824958   -0.09509659259194
O           1.07305606481592    2.22192551838961    0.74861478363371
H           1.01282650287567    3.05263963439388    1.22279903919826
O           0.00709964398472    1.21023454246882   -2.79214836699292
H           0.44947474823339    1.88619514578814   -3.30781468501315
O          -1.63896603886927   -2.71254980796783   -1.71343948850441
H          -2.49715608685355   -2.87702190208077   -2.11036560116051
H          -1.65707553150545   -1.79569515831630   -1.38081042354836
H          -1.46539196848428   -3.06659495340925   -0.00603773469007
O          -1.07525114103781    1.70533684820258   -0.54463604796495
H          -0.23913119778173    1.90930263065290    0.01422960767620
H          -0.74210236858097    1.59149953397005   -1.50982476592889
H          -1.40089695609170    0.69481668182335   -0.28515854366854
O           1.76765980514816    0.17395668685243   -1.18551552580623
H           1.91573814145796    0.90275561500075   -0.57250509072814
H           1.33834764863907   -0.52885047094937   -0.64861586486029
H           0.72233456765801    0.69206582653029   -2.32445792049055
N           1.46223567535752    0.35876837232346    2.47777698806938
H           1.82814535476400    0.50800652287692    3.40994434365345
H           1.24399515148465    1.49357447336139    1.46361610463735
H           2.01146472977994   -0.36638312730905    2.03065202717795
H           0.51832834016126   -0.03246078521137    2.55853345213196
