    26
        -50.44582854  Gyration_radius:  2.49701621863 Dipole_moment: 4.789
 S          -0.84698755406373    1.60896533041453   -0.43060064321456
O          -0.16678783556793    1.34695092227953    0.82193280579989
O          -0.10458777960320    0.94282038989889   -1.54465753374026
O          -2.23305581015087    1.23261087707058   -0.42568303193572
O          -0.75687517528747    3.13655803852280   -0.73615906273506
O           2.54770825603058   -1.48409961202696   -0.75782600478582
H           3.02551185079772   -2.28986980009176   -0.55537149711947
O          -0.87046198134102   -2.30063357283544    0.77222200578647
H          -1.46381741929436   -3.04387464939003    0.65333747681550
O           0.10180565434468   -1.49436884062323   -1.45462299392953
H          -0.05920917061166   -0.41630338203755   -1.53307774972693
H           1.11553204438587   -1.55841026062712   -1.30054044134058
H          -0.33133763993380   -1.80459914254598   -0.57751775315434
O           1.43009196870670   -0.66407990412569    1.44060797211537
H           0.75181580611100   -1.33655568293524    1.56937220624451
H           2.28822796914699   -1.07675175561477    0.11710525273493
H           0.93600246036959    0.16641746767364    1.25991606216383
O           1.78574182140608    2.79215892646647   -1.41466852507743
H           2.05123974006890    3.08755910465547   -2.28836863943450
H           0.20186175038086    3.28451652350908   -0.85051051172069
H           1.32604976592751    1.94036883257435   -1.53644464414161
N          -2.21984819434469   -0.38174505408606    1.82559628645600
H          -1.58591245806992    0.16142156025240    2.40048723970499
H          -2.40176179191293    0.20231228718118    1.00321094498613
H          -1.43272675988254   -1.55012625548738    1.20991736040581
H          -3.08821952761289   -0.50124235807230    2.33234342884004
