    26
        -50.44582848  Gyration_radius:  2.49692758358 Dipole_moment: 4.792
 S          -0.83642599659576   -0.88790192834992    1.41596269556244
O           0.53670907653176   -1.36433551829929    1.06423500678798
O          -1.57770333283309   -2.14735891204652    1.96291791148310
O          -0.79773031720130    0.09881368830459    2.45890890366277
O          -1.51041613833603   -0.44013094108677    0.21371106621753
O           0.77859257164128    2.43422267005417   -0.34284809332686
H           1.26147494302454    3.20126320558156   -0.03132506480067
O           1.89024898275136   -0.67763276185046   -2.28653275120265
H           2.32600752239048   -0.26948775469660   -3.03625508392006
O           2.07067373907862    0.26284222918228    0.06958914342469
H           2.14117275427684   -0.14601241251411   -0.87026294387536
H           1.55010868667543    1.13931905504269   -0.04846720835391
H           1.41102421121983   -0.43968610362277    0.58523731273417
O          -0.44872404814685    0.42920763559431   -2.04325220208889
H           0.93367631882412   -0.39017113009601   -2.31936041756904
H          -0.91956573857593    0.02125054156429   -1.28271740000231
H          -0.20875272556151    1.31359713618656   -1.74467445036751
O          -0.47919022457043   -3.57081205528420    0.01050290153726
H           0.02537712374574   -4.34707356330450    0.26347232608884
H          -1.44872035598925   -2.80703877072792    1.25420797526078
H           0.09432594946959   -2.79947181636646    0.17704212615827
N          -1.44326713319382    2.32905093416210    0.94756003980219
H          -1.87157468422794    3.11648544260290    1.41838112078029
H          -1.22896881991288    1.61060556616031    1.64649821362918
H          -2.13389324977291    1.90660484214843    0.33760271819817
H          -0.11445911469855    2.42385072167214    0.17986615419522
