    26
        -50.44582851  Gyration_radius:  2.49698959246 Dipole_moment: 4.788
 S           0.73015934150250    1.32597338645756    1.09554572385662
O           0.00359816378766    0.16819840650140    1.57708750246805
O           0.52761797384772    2.49704727403368    2.10676353552099
O           2.14068639176489    1.10169890538622    0.94424734532706
O           0.11306348838684    1.80061649232623   -0.18117029193708
O           1.01741943214769   -2.00714983078959   -1.25784354792674
H           1.67767722664806   -2.36153049174563   -1.85540276672205
O          -2.36397543098539   -0.31719335065044   -1.89146223689988
H          -2.78259623853152   -0.97080188803900   -2.45369958347714
O           0.10998787790135    0.24461324863477   -2.07047475573258
H          -0.90179680530358    0.07705223093721   -2.13171115187520
H           0.18285910665792    0.96391141505176   -1.25095387906984
H           0.51680006586897   -0.63749214572093   -1.73938938129521
O          -1.93301599751881    2.81008061496190    1.16243099897079
H          -0.43205002796119    2.67184988858475    2.05550921540203
H          -2.17199796769080    3.68153231902950    0.83905313077487
H          -1.39594345041404    2.39162493415299    0.46378245845462
O          -1.44908777202359   -1.55660633538076    0.20181334337045
H          -0.72454402001321   -2.06373977555701   -0.18122077730795
H          -1.01788506265592   -0.90476300481886    0.79820367917737
H          -2.19112602524041   -0.76228509211799   -1.01355214701189
N           2.13582398308286   -1.66710825193457    1.03260051377923
H           2.98065792294208   -2.13639459887216    1.33448451588082
H           1.48768431712059   -1.89428256860303   -0.34290656456807
H           1.42583731540774   -1.79690871446768    1.74425802439556
H           2.31414618127049   -0.65794304737554    1.01400708644350
