    26
        -50.45554498  Gyration_radius:  2.50371211665 Dipole_moment: 5.885
 S           0.34198102802642   -0.23850870962486    1.35859953452382
O           1.13269390706913   -0.23686130813167    2.59676044467593
O          -1.08039036789683   -0.44899920589936    1.66404767719527
O           0.45923341903098    1.21619797684965    0.84472788006374
O           0.84164119377609   -1.14694251775640    0.35229207628923
O           0.82038125248249    0.14619635937683   -3.07175631550759
H           1.15739639983620    0.67346569403556   -3.79719005754430
O          -2.47956066115358   -0.45749441195692   -0.67399014692251
H          -2.14765924425830   -0.54856981646436    0.23490253689672
O          -0.79888455142171    1.44818340877458   -1.30071270192533
H          -0.25142242897706    1.02546009591269   -1.99346613291296
H          -1.56015958139562    0.82340803456052   -1.14264611511802
H          -0.04753594704406    1.35375737264047   -0.06642207628448
O           2.75191530604617   -0.55359983811473   -1.37898102656977
H           2.12506789390924   -0.71646192631312   -0.64226134026086
H           3.18120839750802   -1.39577305289163   -1.54306053482510
H           1.59139496239401   -0.06572486689985   -2.49246126585604
O          -0.59505745929399   -2.01627572094586   -1.82807379179594
H          -2.02954657662988   -1.16702319656018   -1.17728699064713
H          -0.21408967457864   -1.42175257023429   -2.48661006033896
H          -0.06461685595067   -1.88791181812988   -1.02469460683473
N          -0.65492977954896    1.17137731245095    3.56719473481104
H          -1.20937880957465    0.59935536780139    2.86018188195358
H           0.31092491166170    0.62589345223317    3.33878416263961
H          -0.59478648298590    2.14378485357175    3.28061348282586
H          -0.98582026102642    1.07481902171965    4.52150873147904
