    26
        -50.44582855  Gyration_radius:  2.49699353137 Dipole_moment: 4.790
 S           1.44385732303748   -0.36683913727565    1.12797783482407
O           2.35223809757905    0.70061222718517    0.81426865967930
O           2.08432717383833   -1.23815012224057    2.25298288340769
O           0.14338496776422    0.08703829760618    1.57843888734793
O           1.26903900775566   -1.29335008527257   -0.03263324809179
O          -2.01983057949223   -1.55764745045242   -1.66180291942575
H          -2.77618556497209   -1.41752612710688   -2.23351332256099
O          -0.58426933512045    1.99386979444732   -1.52679112241647
H          -0.33346663382602    2.60954791031431   -2.21717517765363
O           0.42513855267778   -3.20275760291394    1.59597273213749
H           1.47808447978087   -2.00146960188898    2.31574356165280
H           0.53889751628131   -2.63294465401334    0.81233445800423
H           0.81456863661307   -4.05194672080414    1.37606694817290
O          -2.11098503031154    0.24227010967473    0.21086099620511
H          -1.34590549053265    0.11684040656737    0.81541619094349
H          -1.90894274648855    1.04249274396916   -0.28680475824893
H          -2.16707321124311   -0.99610145869573   -0.84832125433536
O           0.20543798005522   -0.38636768477671   -2.04178574828094
H           0.74993361611674   -0.76620925334494   -1.17371573151510
H          -0.66608560161344   -0.92970265611810   -2.01424668356929
H          -0.06529818599272    0.58118217830202   -1.83277948452296
N           0.52212936784547    2.77452994246586    0.65935851516705
H          -0.13979674189426    2.33825446819873   -0.65801225312906
H           0.85191204731813    3.71617851387037    0.83163581121784
H          -0.08330753565342    2.50221023457161    1.42532463112730
H           1.32219789048424    2.13598570773833    0.71119957386635
