    26
        -50.44582851  Gyration_radius:  2.4968485032 Dipole_moment: 4.792
 S          -1.64712181008486   -0.03763418808324   -0.88228747624505
O          -1.05288179656454    1.14965733619783   -0.30129043213945
O          -3.19990376871834    0.10989963855183   -0.83775088199409
O          -1.25689507883907   -0.27237052777579   -2.24445021646426
O          -1.34135942598334   -1.21755852266967   -0.01611020912936
O           2.44336517072620    0.00365529571517   -0.82373453176443
H           3.13460646725184   -0.37606633030833   -1.36834192215940
O           1.14997414757815   -0.89734745706178    2.67094181446471
H           1.96877194643362   -0.88551059373310    3.16889438471705
O           1.01712912768680    1.32491002910270    1.32995918864307
H           1.01539236927231    0.02778740236605    2.31768892496898
H           1.71254629204337    1.19265558044632    0.67593830399844
H           0.18025555067139    1.33972036635663    0.81425108513059
O          -3.11444279169575   -0.38973179361972    1.76760282648772
H          -2.32362975646436   -0.79030527533004    1.36043177474386
H          -3.39379791723293    0.13509992849576    0.11922930472022
H          -3.65189279907177   -1.11489524423355    2.09372361111138
O           1.01478186818875   -1.80097767527144    0.29761280073950
H           1.57175107594082   -1.09317783467067   -0.19414016005451
H           1.09820093900963   -1.57418266065594    1.29623622600234
H          -0.03708188645717   -1.58658125417595    0.09256365692067
N           0.93355789820808    1.42050359161183   -2.34893083293207
H           0.56432383911557    2.18378569932261   -1.79349849780267
H           1.21079350131754    1.78667231138578   -3.25125284901518
H           1.86088705152987    0.57876796262814   -1.45681006489009
H           0.14266979615262    0.78322421542956   -2.48647581806820
