    26
        -50.45987899  Gyration_radius:  2.52569494186 Dipole_moment: 7.499
 S          -1.34485988779721    0.71574783511892    0.15665001674960
O          -1.77446506088029   -0.79923486386466   -0.02523252698834
O          -0.08704584382976    0.67921607845867    0.92427919432287
O          -1.05508074297486    1.18086206083993   -1.21132196566789
O          -2.41609089872446    1.39306031185803    0.80276714046519
O           2.75945802599115    1.39503918332728   -1.94622073467382
H           3.06120693302265    1.99775439061131   -2.62728163352769
O          -0.80296302359521   -2.78916987271545    2.19690206543604
H          -1.60461980263370   -3.24742311490861    1.93996184406508
O           1.07335703721053    2.69198705036410   -0.39866634072587
H           0.26541235339531    2.66960130217209   -0.92915593018088
H           0.86915531915035    2.07500878886590    0.32612380514131
H           2.25185450616094    1.94715284331534   -1.29253850587210
O          -1.61007829106800   -0.29117465680085    2.90530250730111
H          -0.88612849757691    0.16993672131536    2.45433539392503
H          -2.39921325401061    0.12359314806922    2.53950083479782
H          -1.09795787233373   -1.93900788333751    2.58791878922845
O           0.71016893722998   -1.73394201730629    0.27508138955085
H          -0.95660929393886   -1.33596795315421    0.01937383687528
H           0.72895599387884   -0.84786081202001    0.69104433532177
H           0.40188683809157   -2.33403109112687    0.98760512577828
N           0.78927894652682   -0.36730684205448   -2.09642475442673
H          -0.03061233099408    0.28517401599081   -1.78738319583908
H           0.59126687643147   -0.79920294873887   -2.99282734436754
H           1.65338140238787    0.24211437791232   -2.13900542156554
H           0.91034163090451   -1.08192604218579   -1.36078791511449
