    26
        -50.45987905  Gyration_radius:  2.52573563046 Dipole_moment: 7.497
 S          -0.68201555629636    1.15058628450387    0.74655787549732
O           0.61296634753848    1.22972106152038    1.44547988314612
O          -1.00261006433231   -0.26603569878656    0.49618830361261
O          -1.73128302620297    1.90030394216834    1.34720476774501
O          -0.39839364435588    1.77979553021678   -0.68052236008391
O          -1.85259529039835    0.41616398409293   -3.10636228741905
H          -1.78897972983476    1.30250669324347   -3.46532195906631
O           2.45342767285978   -2.19488114586288    1.58334349056197
H           3.08678261025199   -2.34683532538864    2.28617647694212
O          -3.17319283457275    0.69853575400269   -0.74632211783438
H          -3.14380770552110    1.50981188004051   -0.22708989708227
H          -2.44865665060226    0.48731416798831   -2.33027572628330
H          -2.60115163063340    0.09414773376553   -0.24876769557424
O           0.26861896514911   -1.19699364981849    2.65616301726855
H           0.51731672058392   -0.27071425458479    2.77809962050820
H          -0.37320755168486   -1.15048427677005    1.92571335425369
H           1.59354686905123   -1.96788893431966    2.02941430113167
O           0.24659601061761   -0.56284601522166   -1.79096478831463
H          -0.09823146860482    1.05019596716898   -1.26060656747788
H          -0.28100239523923   -0.80209168622702   -1.00175383190030
H          -0.41902547432677   -0.41618035276822   -2.49693515415451
N           2.26849806058969   -0.08618395756285   -0.00688522660008
H           2.47782617971491   -0.96090530894230    0.55080150527513
H           1.61740859534718    0.52782807874521    0.61957415697453
H           3.11676199736449    0.41481650947201   -0.24929408454734
H           1.73440298353000   -0.33968698066401   -0.85361505656873
