    26
        -50.45987912  Gyration_radius:  2.52564622575 Dipole_moment: 7.498
 S          -0.50357517542723    1.40741336475296    0.33061880231250
O           0.93473130286357    1.69665351021046    0.46995048342727
O          -0.69448980615346    0.46677445921967   -0.78796009465541
O          -0.86957422582275    0.59056106676524    1.63877126382221
O          -1.34188668927322    2.55606294279456    0.29086991680567
O          -2.92424122819778   -1.75262336333218    1.27642942333695
H          -3.12548250729891   -1.53463888631666    2.18769275451104
O           3.14873155768594   -0.60397945646440   -1.75117718264549
H           4.01455338807969   -0.28913859493218   -2.01471293540234
O          -3.28462814329601    0.56187743619617   -0.10437748150608
H          -3.18753877564824   -0.96618397148422    0.75212155526785
H          -3.17457849749955    1.43024761854834    0.29868664880699
H          -2.48937127387081    0.46684933360246   -0.65084629117066
O          -0.37009659530058   -1.78347425831057    0.51953949495385
H          -0.71112192062420   -0.35504700117596    1.43968082739040
H          -1.26577479938579   -2.09507654991440    0.77135133923717
H          -0.52304262821941   -1.18181491666601   -0.23753259038056
O           1.41182180590152    1.32118381788509   -2.19567305968881
H           0.54277338892817    0.92643437546504   -2.00444224437659
H           1.55662723829137    1.89409823704576   -1.43049297045918
H           2.49726288446684    0.07644299547467   -2.07125121983240
N           2.08769918746449   -0.58583681476978    0.67448202585647
H           2.61068995462115   -0.70425611273404   -0.23789452056141
H           1.64155995076836    0.41098772898000    0.64424307895305
H           1.31504044796573   -1.26964230540449    0.71746741727275
H           2.70391115897296   -0.68387465544612    1.47445555869779
