    26
        -50.45987912  Gyration_radius:  2.52566949751 Dipole_moment: 7.497
 S          -0.37870282695163    1.38684975253180    0.52668450557946
O           0.87102770308768    1.78756600122079   -0.14358686666141
O          -1.05094172416336    0.36160165068450   -0.29149135949568
O           0.10073456398965    0.63565094292791    1.83751756052122
O          -1.21250514628750    2.46696379832048    0.92904533703839
O          -1.58692677551423   -1.86788375011598    2.69143223839477
H          -1.28383891059927   -1.60397368397958    3.56146037236769
O           1.74652583957722   -0.49342023765005   -3.17085640314242
H           2.29766680218429   -0.13559366664881   -3.86830446556335
O          -2.85732390321146    0.31712466894484    1.68858976343339
H          -2.16627273207998   -1.13939117400657    2.38103336378528
H          -2.63121460414293    1.21641335018535    1.95097517078048
H          -2.47859642993484    0.24219038113734    0.79919163909926
O           0.14373127601217   -1.76663187060610    0.66863761097397
H          -0.45105134863722   -1.22967157746940    0.10608714211274
H           0.21684389577202   -0.30747181843791    1.60116099305319
H          -0.43927089923572   -2.12372763865518    1.37249549699784
O          -0.13296648930731    1.26712122207949   -2.63330919564695
H           0.96272646763099    0.11488777411797   -3.09731433290994
H          -0.71710787710440    0.82526884917480   -1.99202589733590
H           0.34566148432687    1.90057800689173   -2.08172822902902
N           2.16625986332790   -0.38758345399621   -0.55876080080489
H           2.12283850016607   -0.52953214094186   -1.60656117468456
H           1.68048196893785    0.57037723346582   -0.35921772601263
H           1.60942025958402   -1.12054586474265   -0.09054766268142
H           3.12280101257594   -0.38716678444018   -0.22060706016992
