    26
        -50.45987909  Gyration_radius:  2.52565134942 Dipole_moment: 7.501
 S          -0.16466650604654    1.51876107078324    0.10072808768080
O          -0.85736806594312    0.43913709310230   -0.62537384903440
O          -0.15523242480345    1.06912201295637    1.62055241573782
O           1.25630211112077    1.52038540679198   -0.28970520800792
O          -0.80392485413241    2.78766023388270    0.03036267687293
O          -2.49711438182821   -0.81430546987160    2.52096869293167
H          -2.33608248984530   -0.38470097964063    3.36240613944300
O           2.22520865469527   -1.58378601552682   -2.42558384565493
H           2.97694360829986   -1.51664461198643   -3.01607201362224
O          -3.00794732275609    1.20863814787739    0.77733333698556
H          -2.65015348713705    2.09610733915649    0.89136105179684
H          -2.47392127414256    0.84353121598206    0.05510081243445
H          -2.82045435256982   -0.10812761495594    1.92138020613069
O          -0.39657288386547   -1.52882406640429    1.04610871841884
H          -0.20248226596794    0.09105825595713    1.63016862174675
H          -1.18030039477080   -1.58981062463911    1.63328165924250
H          -0.72378274429908   -1.06845347042135    0.24641670554202
O           0.71448023849090    0.53993195566421   -2.78507517388851
H           1.19401469315739    1.20934825140242   -2.27867487847672
H           1.59927335673172   -0.85722924285711   -2.69026159782902
H          -0.07475840034633    0.38305749163848   -2.23699765774209
N           2.09487019665711   -0.86896086335083    0.12052103422420
H           2.93395472154829   -0.93621816596476    0.68681680329115
H           1.80240038085589    0.17397857867488   -0.02267307419093
H           2.24392714351765   -1.27067586113121   -0.84708466240083
H           1.30338676339291   -1.35298005712241    0.57399498838182
