    26
        -50.45987895  Gyration_radius:  2.52567589826 Dipole_moment: 7.500
 S          -0.24960277411610    1.45939870888530   -0.39166494182743
O           0.68304866049378    1.73027315340152    0.71674134598224
O          -0.52255718485240    2.57694120234633   -1.22847427694388
O           0.19698648536108    0.24985901047313   -1.10572050977663
O          -1.60429999517415    1.05273453524050    0.32410357558054
O          -3.26234065449884   -1.23018095311399   -1.04571808415821
H          -3.98726679349179   -0.75681071408873   -0.63451217944245
O           3.20948980602503   -1.17083500823368    1.29567188442601
H           4.04786892146781   -0.97027856624348    1.71419994664796
O          -2.00134559311084    0.61411445071111   -2.59534225018364
H          -1.10391903576210    0.34523108716718   -2.34543631680343
H          -2.88972745007488   -0.61496940561318   -1.71309568430196
H          -2.01434437094144    1.55671487199528   -2.39553011853426
O          -1.02115208662883   -1.55441193289960    0.35730841491586
H          -1.57284693311210    0.08457647651283    0.46755346491028
H          -1.87128343683928   -1.75340994391438   -0.09055457542607
H          -0.45236829187393   -1.18412380256389   -0.34829092970688
O           2.79819595154394    0.60637168353104   -0.59992213252964
H           1.99119914287628    0.30873149284904   -1.05568884107020
H           2.48488282755092    1.36547771016563   -0.08964797562101
H           3.15409778986362   -0.58712361915201    0.49189481702914
N           0.78968762427728   -0.43897065915002    2.08234259630428
H           0.73992811330782    0.52283054750236    1.56685048704221
H           1.75745770376336   -0.82516902905216    1.89725786362729
H           0.61455647534240   -0.32825977486596    3.07549925590864
H           0.08565509880933   -1.05871153191953    1.65017517395071
