    26
        -50.45462531  Gyration_radius:  2.43337470686 Dipole_moment: 7.033
 S           0.64834003017334    0.24809646975227    1.82308825212093
O           1.77500685598944    1.18200698164836    2.05536003306610
O          -0.58951630821632    1.21396177190914    1.67226310782321
O           0.80756436822435   -0.40433380807794    0.53544282895993
O           0.41246277069795   -0.66319924519920    2.90840121498472
O          -1.80785872954961   -2.02097515912030   -0.60962359260876
H          -2.66678921602870   -2.44047128897710   -0.54079489301657
O           0.43669828447452    1.15386272713387   -2.20931751545510
H           0.64202188550602    1.37560074177224   -3.11843940576749
O          -0.56366749945287   -2.74614425965291    1.60740060347008
H          -1.32365435854225   -2.26024569450587    0.22377893894076
H           0.25302153370598   -3.19095066098509    1.37127282977554
H          -0.28314440564556   -1.98281135040850    2.16043420529273
O           0.62270089718824   -1.41932867477269   -1.86668471282446
H           0.88891103832117   -1.22324463412244   -0.94778537625870
H          -0.26853061376380   -1.78279924281258   -1.76618710024084
H           0.55363510674928    0.15953837933646   -2.13239029620970
O          -1.79708783822154    0.68186699866144   -0.54230912304527
H          -1.85008327991819   -0.29742060941662   -0.56716024382577
H          -1.12543910636255    0.96546042222894    0.85936642681055
H          -1.12500243615308    0.91821298053627   -1.19847776860579
N           1.28084976097272    2.53109116825020    0.02115676550882
H           1.08588531632293    1.90259362634268   -0.78539034716958
H           1.61742288036851    1.90238796198349    0.95965104639347
H           1.96974760030659    3.23427751171491   -0.22503710782458
H           0.40650546285203    2.96296690678008    0.31198122970511
