    26
        -50.45987912  Gyration_radius:  2.52569083158 Dipole_moment: 7.499
 S          -0.63347178480749    0.89649948981276    1.06729591776858
O          -1.15470207884890    1.54237432994741   -0.28310469740941
O           0.74397112100195    1.40122764181033    1.20705139514787
O          -1.52186999701357    1.29220483055866    2.10553098066052
O          -0.58615071704517   -0.55530133606145    0.81732357861786
O          -2.98031637220615   -0.27630187651249   -2.07215392418306
H          -3.33658133905135    0.57427790988012   -2.33298648238780
O           3.41832917116743   -1.26209276151466    0.26279180246388
H           4.29462980407967   -1.18421396342531    0.64268291551363
O          -3.25344831718412   -0.36204701634608    0.63189219271047
H          -3.20321354773766   -0.37616854592303   -1.12189378874749
H          -2.37710615687356   -0.74130510748064    0.79996733538520
H          -3.26072412388348    0.43123232757371    1.17897501752677
O           1.66240119713474   -0.97551267317124    2.20069939950041
H           1.65036770968911   -0.01539867528620    2.31307556971687
H           0.79902650984455   -1.15233237745320    1.78703027769252
H           2.78654092772530   -1.30627737535304    1.03002541709690
O          -0.34077500636284   -0.50592470499565   -1.79350037959671
H          -0.40653132416325   -0.87707591724845   -0.88992974224514
H          -1.24490055191231   -0.59710703623555   -2.16362682195035
H          -0.91000174262736    0.92977680060146   -1.00676960708071
N           1.98455930779518    0.63390421224295   -0.90316788376914
H           2.47018999646224    1.36980131896727   -1.40508829907715
H           1.25733905767437    0.20104181286882   -1.49494305374337
H           2.65247509521680   -0.11393256819930   -0.56461470908262
H           1.48996315190217    1.02865127092892   -0.01256239049848
