    26
        -50.45987906  Gyration_radius:  2.52561917376 Dipole_moment: 7.497
 S           0.41465445936860    1.47124458032749   -0.07834811910491
O           1.42674771585771    1.05399126257966    0.90827769936881
O           0.63198176805420    2.75623036458974   -0.64872536159773
O           0.22815073134232    0.38616789565211   -1.05813181540604
O          -0.93728085573604    1.53421490502290    0.74684881972881
O          -3.51735088079840    0.56439077920375   -0.74804891905796
H          -3.93029975128935    1.19491918451281   -0.15616958608149
O           2.40183505623207   -2.69527804718118    0.56272531772380
H           3.26183034568776   -2.97391894547199    0.88046531195464
O          -1.59269926422441   -1.00254992388659    0.22085637710183
H          -1.33878893638873    0.64205093766482    0.70732084170328
H          -2.46378334590997   -0.70919477837006   -0.12248417854435
H          -0.95696583422459   -0.76097694481333   -0.48338377685183
O           2.73462662249330   -0.53051996558686   -0.89453639058506
H           2.57229345894391   -1.97688611136540   -0.10412061475949
H           1.85671692640748   -0.34095871643329   -1.26985974302522
H           2.82460275402932    0.14979210631130   -0.21347998976700
O          -1.64471426757623    1.98985252947606   -2.11001130337869
H          -0.95406775356523    1.31184620784242   -2.05181467544619
H          -2.94312370583096    1.09507211844006   -1.34079736208580
H          -1.21898647326299    2.77245372200667   -1.74265690228826
N           0.61741105572267   -1.20120557042537    1.82508153300635
H           1.29552012783483   -1.91032127829541    1.42842011079447
H           0.56572144552204   -1.25819870315149    2.83670793424596
H           0.97889785318562   -0.22075031889078    1.50658958003859
H          -0.31292926188454   -1.34146727971155    1.39927519230716
