    26
        -50.45201961  Gyration_radius:  2.50177853221 Dipole_moment: 2.538
 S          -0.83115886663544    0.99718646213473   -0.56056201998783
O          -0.61229437227194    1.38485648880017    0.83790890290930
O           0.28469436879472    1.39059036528752   -1.40561678659538
O          -1.09404984432136   -0.43695116242220   -0.65936042541383
O          -2.10802011888632    1.75825321279810   -1.00802917441070
O          -0.32413927034084   -0.14518558712621    3.58137696556446
H          -1.05178552960628    0.47091925800666    3.46006329208662
O           2.30328996932374   -1.19797910693615    0.87228070542649
H           3.24870762881023   -1.35361824598149    0.84969938416518
O           1.37018147113177   -0.97354797193306   -1.52373474762773
H           2.00199616650397   -1.13294371447983   -0.08722729011213
H           0.45940988357682   -1.27511570777571   -1.37483235444392
H           1.23447763923525   -0.00553227815901   -1.61969187678177
O          -0.47335520710847   -1.78854383248986    1.55224519845274
H          -0.82234895852916   -1.31027613561234    0.76903779497730
H           0.44596194300795   -1.99552470023010    1.35061506584988
H          -0.48402492676438   -0.87505515856395    2.92113037278907
O           1.42264558799126    0.88261038685987    2.10811948307858
H           1.83921723294230    0.08422275744901    1.63497438425907
H           0.62701775927515    1.21506989046541    1.47227737279619
H           0.82877509786180    0.48073662862800    2.87641755093499
N          -1.68347015861636    0.72803721153422   -3.37269453296497
H          -1.78632962005971   -0.25868934520151   -3.17161003274914
H          -2.18863344326134    1.49107044183843   -1.96105409103046
H          -0.71690369490928    0.98063489441549   -3.19070981608408
H          -1.88986072716386    0.88477495868934   -4.35102332508601
