    26
        -50.45201974  Gyration_radius:  2.5023133748 Dipole_moment: 2.543
 S          -0.05783092756659    1.29566125304387    0.56117428880773
O          -0.57299602839975    1.42037023742604   -0.80727959653759
O           0.36194388813304    2.73030242974654    0.97997634047582
O          -1.07832513632909    0.80680042814591    1.47445151363700
O           1.13014912823716    0.44504231013647    0.58605160555201
O           0.10972317545686    0.11115260323019   -3.59645299234080
H           0.21311518270530    1.06002489574743   -3.48339000706270
O          -0.87874921554424   -2.46397790547354   -0.81308547472312
H          -1.45022536106530   -3.23098421805906   -0.75209849584637
O          -0.21391077852361   -1.64853284837734    1.54374169824263
H           0.64073316812139   -1.23527685880812    1.34033835807768
H          -0.78002075765409   -0.85631195360551    1.67312180332524
H          -0.64700780310609   -2.20521829424001    0.13303735095074
O          -1.76429816316238   -0.35822833460016   -2.00103561639471
H          -1.10748651589920   -0.23703497073879   -2.81261816359171
H          -1.48038331461672   -1.22098489893788   -1.54248336557232
H          -1.38415136465631    0.43498258918071   -1.39001941499989
O           1.48314927749752   -0.96374476839125   -1.64781535546371
H           1.45099903390478   -0.37543480934567   -0.86230695870647
H           0.98011163006537   -1.75116500721881   -1.41218895326450
H           0.77174796310779   -0.30191318013539   -2.97568853077642
N           0.91250618480314    1.70364972508192    3.32044968738538
H           0.03418109053516    1.21140078503569    3.18779109918799
H           1.00189530392648    1.96840259374899    4.29319396097015
H           1.66186415050280    1.06466202569477    3.08641226141429
H           0.66326619952435    2.59635617172446    1.91672295727297
