    26
        -50.45201964  Gyration_radius:  2.50156094461 Dipole_moment: 2.549
 S           1.28945744961189   -0.53985175118782   -0.20485110880566
O           0.33810964593253   -0.26328229677499   -1.27914308365238
O           1.47443437573863    0.64790889270180    0.63694325721765
O           0.88050736908675   -1.69339802623430    0.58033378016070
O           2.67680798871798   -0.81794673830311   -0.84327709220485
O          -2.36771857557419    0.52418206812997    1.27162193894522
H          -3.08335375398613    0.30618885527818    1.87072417258296
O           0.14446650921341    3.49835948246169    0.82863480557319
H           1.07915362895589    3.42467167462407    0.61695348336499
O          -1.64092690292537   -1.56538541967494   -0.05764080274050
H          -2.14115817138602   -0.32456382716917    0.77747067403720
H          -1.30025094439865   -1.13945206696149   -0.86088285271913
H          -0.80449017969317   -1.82899534038293    0.38465097779765
O          -0.17951023181103    1.46278009563680    2.25220447575304
H           0.57047249097269    0.98302764523213    1.65730103138407
H          -0.10651516575422    2.41977914831957    1.82295700198310
H          -1.06872534714957    1.08443492366684    1.93415599563036
O          -1.07069657281743    1.96814784687789   -0.90917858945177
H          -0.33294240749953    3.06927477574023    0.06554189284796
H          -0.49102925723216    1.20874559212914   -1.13598624184799
H          -1.81331407639935    1.59918353125346   -0.41824867271671
N           1.57727828456545   -2.94374489559420   -1.89479050808219
H           0.87737588175914   -2.52762074478318   -2.49614863825329
H           1.16649496605994   -3.05244261671089   -0.97242776286899
H           1.82080181392491   -3.85554454550361   -2.26032806499004
H           2.50527119200762   -1.64445624275586   -1.36659006900180
