    26
        -50.45201953  Gyration_radius:  2.50238099166 Dipole_moment: 2.537
 S           0.74133306037187    1.18313425231385    0.22261658706416
O           0.57999968499568    0.55079989090200   -1.08502475167480
O           1.32979906324613    2.60337825204132    0.00716949303398
O          -0.56523355914254    1.39142846597954    0.85779793591720
O           1.63465507750928    0.41583702391122    1.07519333324046
O          -3.54554816650879    0.59017020006063    0.19630673826794
H          -3.30655124896135    1.52012149287935    0.23932700731831
O          -1.09928401671289   -2.45346481782033    0.53078603437379
H          -1.11482794557144   -3.30890036224834    0.96268340070788
O           1.30765989856339   -1.84546128596243   -0.17581928674389
H           1.58121867125710   -1.18843177375163    0.50072502639543
H          -0.14078738779622   -2.28268529081462    0.27047382863727
H           1.11489257509021   -1.26535568087617   -0.93038059319714
O          -1.84716942661071   -0.47558517871481   -1.48323662362736
H          -1.69627100115329   -1.36140145951041   -1.13511856328097
H          -3.02744017606715    0.22007560756563   -0.57089001997510
H          -0.98628731069806   -0.00796475006159   -1.41882722980624
O          -1.92782804895950   -0.39490260202640    1.83699385389270
H          -2.75015722246504   -0.05960169378858    1.27534955386981
H          -1.61208745313187   -1.24831127568083    1.38203533760522
H          -1.23373324530226    0.36625794076221    1.54216469926106
N           3.46671463473610    1.39463897132503   -0.89059955196046
H           2.21945360343825    2.40479148222549   -0.38694728565939
H           4.45949611530881    1.54185159565365   -1.02110399051767
H           3.32194234218668    0.78248501816350   -0.09332645993178
H           3.09604148242538    0.92709597747238   -1.70834845320295
