    26
        -50.45201954  Gyration_radius:  2.50164106398 Dipole_moment: 2.540
 S           0.93533800383925   -1.00898951440715    0.32436231569889
O           0.24640669705741   -0.18315573737157    1.31381497872578
O           1.57813903211005   -0.16686508923505   -0.69110598072858
O           2.09295890406400   -1.75836827470534    1.03716528588783
O           0.03306104371517   -1.97761214298030   -0.27720213097575
O          -1.96142796893053    1.29595679798708   -1.40471642499129
H          -2.72650447159167    1.32003770390264   -1.98152150890964
O           1.60913312792398    2.91108267365098   -1.37439803025900
H           2.42887429181494    2.47351830975268   -1.12850163831830
O           0.37069302409562    1.02393466698433   -2.46119962127168
H          -0.57941884759251    1.12502942056618   -2.11139936763600
H           0.87068074214590    1.90776466906572   -2.18926899368838
H           0.86420666016264    0.36509672202323   -1.77669813119103
O          -2.15260420951667   -0.66758521683536    0.25927296536851
H          -2.10309294112346    0.52112387129209   -0.77582901289900
H          -1.53462044953778   -1.33476991079460   -0.11173582367876
H          -1.62444340286014   -0.31319900712161    0.99296042286597
O          -0.06841026886855    2.35131442075856    0.55251131958665
H           1.02864828541378    2.85655009799851   -0.56563532333610
H          -0.91946520053409    2.27142441580782    0.10766734270026
H           0.13389112618059    1.46108382164763    0.91382848972410
N           0.22870274683474   -2.99776636296808    2.38724029202169
H          -0.19197834100211   -2.22584073679204    2.88898000898667
H           0.06586504439962   -3.85124337635784    2.90618382806162
H          -0.22923826031430   -3.06399571301382    1.48327036562837
H           1.60460563196156   -2.33452650860877    1.68195438263613
