    26
        -50.46728905  Gyration_radius:  2.49343290904 Dipole_moment: 4.064
 S          -0.73778668107210   -1.79088570974114   -0.68731415913456
O          -0.84247440569694   -1.49727158761599    0.74524705692319
O          -1.23253136000430   -0.69132321243635   -1.48730012789035
O           0.58118521842888   -2.25850689759428   -1.04430393645163
O          -1.71942175538918   -3.01110595939800   -0.95190459075092
O           1.69678562325550    1.36111857076064   -1.08077237898888
H           2.51421182699618    1.81352667610728   -1.29278080953644
O           0.60639804142557    1.21646547049094    3.09898942328217
H           0.71901060011139    0.72090199712496    3.91120508239656
O           1.58578634152892   -0.24603027754280    1.15481675936876
H           1.11294390152361    0.71443040856585    2.40434630635324
H           0.87808536008322   -0.87455268682528    0.94420402698536
H           1.70887234261655    0.30435831921008    0.36054055633132
O          -0.98154554697879    1.87891286337853   -0.82826910814399
H          -0.01208384044265    1.94091493593949   -0.89103034969325
H          -1.19280399112546    1.00742527579253   -1.22217054736203
H          -1.16151417336374   -3.75133549617107   -0.73659067429993
O           1.11996546081486   -0.45786737371348   -2.87344147964646
H           1.54624872725214    0.69469892577839   -1.80783587511459
H           1.12218862232990   -1.23146488256232   -2.27098984331988
H           0.18023984526245   -0.29830788845784   -3.01802656397714
N          -1.52364862996270    0.90487929400968    1.53580828571529
H          -2.46313680852202    1.04681515640418    1.88772304532272
H          -1.36450121017972   -0.10545947814179    1.25642026695698
H          -1.34963883120017    1.46531286616541    0.64083436553352
H          -0.79083467766461    1.14435068053991    2.25259524914032
