    26
        -50.46728904  Gyration_radius:  2.49397958199 Dipole_moment: 4.081
 S          -0.61940588563447   -0.17281715744189    1.95434071271222
O          -1.92692652809405   -0.64165293626097    1.55920492740674
O          -0.34153308897894    1.20875720566970    1.62586992264013
O          -0.58152753430806   -0.27056077284149    3.53909811190826
O           0.44531867095181   -1.05929878463600    1.47431692303213
O          -1.29285650320369    0.92239264910093   -1.83568541636047
H          -1.80477658893675    1.02677654160263   -2.63871468771195
O           1.96506854536750   -1.90756055796667   -1.98795435253471
H           2.19437976235013   -2.83116131913202   -1.87682726528144
O          -2.71220687353225    1.51136129476956    0.28389322551049
H          -2.64727218801171    0.63852246185838    0.72587664670569
H          -2.09559960550375    2.05572015214916    0.78686236585361
H          -1.89786869983583    1.16816833076913   -1.08134861592442
O          -0.47257817266791   -1.59550163032295   -1.07261814121270
H          -0.36027302033539   -1.51249020497627   -0.11286251561867
H          -0.83002210632025   -0.74342839031120   -1.38095856247569
H           0.99478142758081   -1.84301265503731   -1.77435928527271
O           0.89758101002342    2.00320302533182   -0.59572047725167
H          -1.11887682964186   -1.04088086854996    3.69170287972330
H           0.21950643183462    1.72483764786873   -1.23638554752421
H           0.45919419364569    1.90845564847724    0.27505293216869
N           2.34092729864143   -0.10931454352286   -0.06356058833578
H           3.25615048436820    0.04805614746438    0.34168262776716
H           2.37332799242166   -0.79205220166126   -0.86413587736075
H           1.66432752351892   -0.50259388427756    0.65150249598810
H           1.89116027283349    0.80607478332460   -0.38827245866978
