    26
        -50.46728906  Gyration_radius:  2.49368985754 Dipole_moment: 4.077
 S          -1.88741752747204    0.37665262394750    0.72422556268471
O          -1.90813338734031    0.24730851962190   -0.71690473932489
O          -0.78331551324013    1.23395095227978    1.16658924729844
O          -3.21840434532870    1.14677749841226    1.12170282239335
O          -1.92066063768740   -0.87228085054597    1.44842938876643
O           0.80255401732877   -2.11767253512102   -0.87580923274994
H           1.26469638099243   -2.94886723177765   -0.99137874160027
O           3.07576246694831    1.12272477983609    0.85395644450925
H           3.34528342165093    1.52432622097538    1.68104232588894
O          -1.77596544094390   -2.48767936438077   -0.61277600581186
H          -0.16550642829189   -2.34266645453281   -0.78883095413977
H          -1.87005665251618   -2.08998035798500    0.27846465914760
H          -2.13109769348884   -1.80479174494306   -1.19333975346064
O           1.22282346428252   -0.64606069641304    1.41634635623976
H           0.40955409223236   -0.12432833966473    1.49923302630707
H           1.09268632942898   -1.23659618498248    0.65271185479436
H           2.48702321404601    0.35978118365395    1.10394245502714
O           0.26994962893708    0.19058347988769   -2.25146292843345
H          -3.33144673279115    0.87148907959706    2.02548517749201
H           0.64078047803037   -0.65016826740330   -1.93004699346850
H          -0.63047494504212    0.21912053890773   -1.86695791911313
N           1.01545955860272    2.03723618427713   -0.55933720944378
H           0.84368090474666    1.34774039879792   -1.35981361703032
H           1.92801104663206    1.81126886415680   -0.08585614925888
H           0.97888203277061    2.99762950095755   -0.88015909915573
H           0.24533226749060    1.83450219240004    0.14054401238449
