    26
        -50.46728904  Gyration_radius:  2.49335717251 Dipole_moment: 4.062
 S           0.08761274093342    0.39813066349128    2.01471981419202
O          -0.27798491367952   -0.95746511731821    2.35297639931713
O           1.33061101750222    0.44984349434923    1.23908535638151
O          -0.95899266152347    1.17262606678899    1.38326891573817
O           0.40719449254089    1.12025793655765    3.39266027601312
O          -1.72039371945829   -1.28553835751004   -1.13489793531160
H          -2.19286653419522   -1.97162306523037   -1.60804378239859
O           2.36590367528611   -0.57747244566530   -2.34884379737557
H           3.27297221711094   -0.85354252706432   -2.21105058633425
O          -2.67240731284492   -0.96338283261734    1.28269386787344
H          -2.72114316597615   -0.00262075450426    1.34633202069592
H          -2.14350204650465   -1.22148873766835   -0.23365453444414
H          -1.84867709691655   -1.17516462531677    1.77047539815675
O           0.92130630934431   -1.68739218934715   -0.46216072846742
H           1.81967352381655   -1.12243165116502   -1.71976764676930
H           1.04658123501589   -1.11248100693589    0.30858268107151
H          -0.02262434040346   -1.63024123151321   -0.69612559572667
O          -1.26971359418718    1.41413719580607   -1.25268131276943
H          -1.49218541780616    0.48695183618890   -1.44879678082020
H          -1.30391133106428    1.46832533938088   -0.27534379162336
H           0.77831570348117    0.40444452353038    3.89798017966968
N           1.33744483075003    1.55508466146904   -1.13552975110863
H           1.75358737971082    2.47331558009983   -1.23717255018642
H           0.28900493272003    1.57213626132136   -1.35001668669117
H           1.81168096882225    0.83515763596406   -1.73965126988694
H           1.40251312750890    1.21043333692300   -0.13503813916723
