    26
        -50.46728870  Gyration_radius:  2.49436142133 Dipole_moment: 4.089
 S          -1.77448546730201    1.00029634946992    0.29390157181704
O          -1.31431412934660    1.16377297914399   -1.06819627561905
O          -1.17943650987842    1.90378240686648    1.25051636767455
O          -3.32683357234818    1.33641015695828    0.28341075943877
O          -1.67210587962346   -0.39684541828553    0.72690886013819
O           1.20365907403366   -2.96587044540978    1.10128363489966
H           0.90881794141865   -3.47690203379814    1.85619031697203
O           2.18948437635165    1.01508006217919   -0.24936978981782
H           3.09165932598964    1.30354417360919   -0.10553089421746
O           0.67473766201107   -0.23396211606649   -2.15966190079838
H           1.39952040177413    0.10655127994023   -1.60602680934703
H          -3.47118045360216    1.57877659843208    1.19216495335975
H          -0.08304295961396    0.35010152223340   -1.94968591012380
O           0.90418155086751   -0.43297657115113    1.71159096573546
H           1.22118003947563   -2.01854138669270    1.40711124991401
H           1.40553721334994    0.11534891107849    1.08159096579165
H          -0.03392266521501   -0.25623726906466    1.53959610593517
O           0.54479544576243    3.04901740915087   -0.35957401265953
H           1.63113196331700    1.84128352245369   -0.28270715352962
H           0.00573063790640    2.82274417241650   -1.12621760907567
H          -0.02621835106006    2.79224838299063    0.39511351382118
N          -0.46851252937615   -2.15108298432893   -0.80096612298034
H           0.07893401995902   -1.50205748114346   -1.45277819475311
H           0.19529701713503   -2.63539589042372   -0.14303000640446
H          -1.06644608509964   -1.50108990460810   -0.21450199271667
H          -1.03816805718038   -2.80799643540971   -1.32113259356181
