    26
        -50.45364264  Gyration_radius:  2.46013514289 Dipole_moment: 5.004
 S          -0.23573059464721    1.64737012117797    1.31352084610179
O          -0.68603506675788    0.27707609218939    1.88245846321478
O           0.63318890282624    2.27666649922385    2.24104050602544
O           0.29576552114192    1.42456395339485   -0.01014787428164
O          -1.54844211227592    2.45098733163788    1.20420587072008
O          -1.57262909261521   -0.48587173709682   -2.23046199970944
H          -1.91712344102386   -0.62356055770533   -3.11337088614342
O           1.78122256928281   -1.88709130574532   -0.32749887090365
H           2.29529722285902   -2.68073925158495   -0.17432960892530
O          -2.91437851581842    0.81470609161925   -0.26810343004318
H          -2.14169951585790    1.93687919678923    0.59077770977353
H          -2.43208186488633    0.48109946618164   -1.05219384988705
H          -3.07407884493640    0.05266660979766    0.29496746873802
O          -0.85847046294518   -1.60161715698440    0.17151766592389
H           0.08315739942542   -1.81941951621074    0.00827421663639
H          -0.77100034244487   -0.46156278560511    1.17973343866357
H          -1.20077684655788   -1.30515034619284   -0.68952741854647
O           0.97689878761199    0.04274522670634   -2.21105311305814
H          -0.60848763951096   -0.23830896879694   -2.33210050777151
H           0.86954452597571    0.71990842684009   -1.52218279736593
H           1.38572095023269   -0.70821901510455   -1.75466936459747
N           2.39531472217657   -0.01296667236442    1.45189192353541
H           2.08432231574311   -1.20816270304737    0.34269638046871
H           1.92262861090507   -0.15833447510186    2.33672788061495
H           3.33270568098161    0.30958210179249    1.66213636971724
H           1.90516712111694    0.75675338418780    1.00569098110018
