    26
        -50.46460250  Gyration_radius:  2.41109783785 Dipole_moment: 2.664
 S           0.31728288301598   -0.46055402437200    1.28024262481567
O           1.52904992228133   -1.03321826941516    0.67932885745091
O          -0.84982172365170   -0.80111640640588    0.45627582729410
O           0.11900729275570   -1.10705429209155    2.67024138664081
O           0.43090771784338    0.97214650733844    1.46695170394200
O           1.97075296228236    0.09336047625126   -1.49977751439732
H           1.92802616854243   -0.43085144121474   -0.59848073776223
O          -1.15025441484496    2.31344856591144   -1.61845924566447
H          -1.72380948746138    2.94684365644863   -2.05115646685544
O           1.38152734410503    2.34525848119214   -0.57842843837157
H           1.12292271363501    1.98532734126744    0.30034344736517
H           1.87677515397577    1.09985007067753   -1.19370989316090
H           0.53901244947825    2.54256602508249   -1.02983253473932
O          -2.11224794651490    1.52543394227888    0.68608161743258
H          -1.44241542676411    1.83381441935589    1.30958730868050
H          -1.59107593057357    2.07352291080048   -0.75486036612082
H          -1.89783699215328    0.57585044304241    0.59519077597538
O          -0.43664930521658   -0.27814844488230   -2.09948287355707
H          -0.68823732266380   -0.59829128431160   -1.20196586972055
H          -0.78509475967022    0.63232317995966   -2.14797047469459
H           1.03136626427700   -0.11891682235652   -1.91948766152249
N           0.07174561303546   -3.38528089548079    1.43430504778345
H          -0.71151853228466   -3.16041400696743    0.83270423409642
H           0.06117724700675   -2.07834343910676    2.44198879328462
H           0.09353344063715   -4.38472099086440    1.59242351349994
H           0.91587465892952   -3.10283568217155    0.94794689831172
