    26
        -50.45590490  Gyration_radius:  2.44293453935 Dipole_moment: 7.049
 S           0.36819495136307    0.47976314670575    1.70458577328563
O           1.38235509451081   -0.04519266537343    0.75209375587918
O           0.85016136370627    1.70735613309057    2.31436699069355
O          -0.81038621995117    0.96328944013903    0.77809403206765
O          -0.12002639556710   -0.53846541202374    2.59246128214103
O          -1.11927777233326   -2.69233035845940   -0.73251471273488
H          -1.44158837188535   -3.58757807226679   -0.84524263459311
O          -0.09184036714019    2.20292714240167   -2.03924154388187
H           0.20216701521544    2.32547040808115   -2.94361767492404
O           0.63077487928627   -2.64836629256370    1.20528651322277
H           1.35888582466232   -2.11294047396211    0.86668242073264
H           0.23636665738478   -2.05977818983927    1.88340569493385
H          -0.44997797951595   -2.73418469171068    0.01029740548939
O          -2.70430608615280   -0.74401627055498    0.20768812498619
H          -2.19251811284450   -1.51445678633169   -0.12298528965628
H          -1.53657055588625    0.29305965999290    0.69266251128447
H          -3.10676305669396   -0.32903291813498   -0.55807783490632
O           0.25953567771621   -0.40867272664454   -1.65314961399087
H          -0.14045400722739    1.22797714624207   -1.90183843238556
H           0.69548147497695   -0.34210641727355   -0.77973287579222
H          -0.29522252955898   -1.19703575192619   -1.59462281751991
N           1.62569389605383    2.39992809655448    0.00406777471723
H           2.43751959062007    2.99196205096033   -0.13546041003951
H           0.89533651065903    2.52349279666221   -0.74423105818785
H           1.84997089928871    1.37050340516895    0.04710840623346
H           1.21648762931299    2.46842760106736    0.99191423294417
