    26
        -50.45262174  Gyration_radius:  2.52474305205 Dipole_moment: 4.448
 S          -1.02937798537317   -0.89820935429539   -0.55118414977841
O          -0.94927912782206   -2.42318581680405   -0.90862703498563
O          -1.23038653619454   -0.85510072756785    0.90047104443674
O           0.26605431095840   -0.31636863732922   -0.89316192717388
O          -2.12113399228172   -0.30508810348320   -1.28703842615443
O           0.91766798859389    1.95549653384696    2.00337518987354
H           0.70461349133247    2.47784394788111    2.77803199992973
O           2.34710749835348   -1.34211298005650    0.36530604902186
H           1.60536037736095   -1.27162444818946   -0.27356376222262
O           0.84241621075221   -0.61905081467294    2.22502176695376
H           0.94285476132348    0.39102921345257    2.22135601434453
H          -0.07989897305071   -0.78588352354087    1.72076866318327
H           1.56323713354305   -0.99631842116258    1.53688965477716
O           2.54691690737678    1.25492524727777   -0.24554659946048
H           2.85820358462112   -0.52496626802666    0.18950187121349
H           1.76859819617474    0.94856401287012   -0.73133651245948
H           2.20839905951381    1.73635891485613    0.51827956991545
O          -2.00531436797482   -1.98620355706125   -3.29054156095544
H          -2.86558459995012   -2.38070993621213   -3.45105472487684
H          -2.16478877881847   -1.18370836820011   -2.75103981538940
H          -1.20653668185371   -2.49125615679124   -1.85237565737800
N          -1.06973093014336    1.97578205558924    0.29765076053009
H           0.14089961132117    2.04624870330707    1.35892678689993
H          -0.68214675390780    1.39663401686653   -0.44227600661030
H          -1.81117587147679    1.41204843065857    0.69967590311680
H          -1.49697450240082    2.78485602678286   -0.13750910674267
