    26
        -50.45262175  Gyration_radius:  2.5247525132 Dipole_moment: 4.448
 S          -1.12068641296472   -0.03426721699475   -0.95541863724671
O          -2.13483501469412   -1.04588970456011   -0.77290612027503
O          -0.72113518547762    0.59960213763854    0.29841592412496
O           0.06203005171212   -0.53398643444671   -1.66328777299403
O          -1.69814337131160    1.09974134672272   -1.87209442321625
O           1.10716455265675    2.49189810341249    0.08948936508923
H           0.23124058011009    2.05305834254708    0.03117419520318
O           2.54480055766916   -1.06314387300499    1.03597681650254
H           3.22734716881871   -1.73237864890312    0.96792933077412
O          -4.16112432664004    0.58551468149393   -1.06659457216745
H          -4.76540267119893    0.25689346525152   -1.73614829191771
H          -3.60378876087852   -0.17496924683504   -0.79908255614619
H          -2.64938177261926    1.17001196026101   -1.64473908881361
O           1.17957048257876    1.07840969854606    2.35970635261195
H           1.34564087748248    2.36760566406907    1.03160494571906
H           0.34585703351096    0.82451421096244    1.94005615962914
H           1.78808042893860    0.34749027495206    2.20076028262877
O           2.19419494216610    0.51339331012446   -0.98262301569250
H           1.30736932410488    0.06844496506780   -1.36791546847554
H           1.84396646251875    1.43579378969931   -0.58024454288413
H           2.43613217605801   -0.07248207575344   -0.18979340444302
N           0.16984276413888   -2.13064762508425    0.75376544673820
H          -0.41506840706373   -1.30575653985604    0.85651220102032
H           1.65232408987460   -1.53948233579148    0.97653024508634
H          -0.24110923748568   -2.86994726682106    1.31147801101664
H           0.07511368800722   -2.38942100271888   -0.22255139187702
