    26
        -50.45262174  Gyration_radius:  2.52475015176 Dipole_moment: 4.448
 S          -0.66046744511863    1.05042796529782   -0.79421150362634
O          -1.39687858603120    2.07133625161711   -0.08663998406422
O           0.78032321262763    1.31743516501760   -0.84337703145653
O          -0.90194423104492   -0.29012429018427   -0.26676822088065
O          -1.12621781303383    1.03846642996077   -2.29177294516345
O           0.36615423443800   -2.24871839513924   -1.50076193494536
H          -0.29735846140720   -1.54329093797387   -1.34126987465416
O           2.18101027596885   -0.92864804154017    1.74942277489538
H           2.98233544466732   -0.70849123242913    2.22667103314726
O          -3.51271653233229    1.95394311783027   -1.62382664892207
H          -2.92242511141376    2.09389036477444   -0.85409877797050
H          -3.73933790136282    2.82629512742629   -1.95411084622671
H          -2.08268741151387    1.25393185926874   -2.27693683400965
O          -0.04095514139944   -2.62152563547561    1.11699378467731
H          -0.58156218465732   -1.85140090528556    0.89277832981413
H           0.27378854285588   -2.81209471283670   -0.70456013468567
H           0.74107610828023   -2.27433182301048    1.56160279930784
O           2.20745964619745   -0.69989230879419   -0.82547161669545
H           1.65270339107543    0.20525851589939   -0.90106007929447
H           2.28318023098631   -0.85642053475534    0.17458348835569
H           1.52504274393718   -1.43050488461026   -1.19430410767243
N           0.39663598758421    0.97087423775957    2.00904317959490
H           0.72323214642727    1.76144267809122    1.46364455301899
H           1.51195864442630   -0.18965330609902    1.93179806859597
H           0.00379164464568    1.33029020766990    2.87102103267842
H          -0.36614142480237    0.58150509752969    1.46161149620257
