    26
        -50.45262172  Gyration_radius:  2.52477316374 Dipole_moment: 4.449
 S          -0.87050485938652    1.11301115809067   -0.41674985214882
O          -0.64892003585617    2.40750585595684    0.18354423274561
O          -2.30769693401816    1.08697310536961   -1.04414446814123
O           0.03977816996796    0.83882647877387   -1.53288277569377
O          -0.81408672091673    0.02210774881370    0.55290529298024
O          -1.23726193436083   -2.39441429492037   -0.42173477424810
H          -1.43303770172081   -1.48464028972134   -0.10990699980582
O           2.57591278451696   -1.42882792945529   -0.06489577040469
H           3.47721784221793   -1.45376465328590   -0.38956312618712
O          -3.17286555747627    2.86968247640008    0.70298200814936
H          -3.44175493349097    3.71792736296349    0.34286971001105
H          -2.86895282560861    1.63054435365972   -0.45165188870097
H          -2.19345058755239    2.88135132592000    0.73752430322721
O           0.44718338652184   -2.27769430113725    1.65329342102687
H           1.32967976664279   -2.18235225739155    1.27663140675099
H           0.04634416395091   -1.39825127911765    1.61429529389275
H          -0.76972011663143   -2.78637615260547    0.34489062817359
O           0.66290321545099   -1.53732435274533   -1.80037208095786
H          -0.15413176401492   -2.01424268479413   -1.31038150303501
H           0.38584921935602   -0.50977958388571   -1.78225208391476
H           1.45039475129699   -1.58871536474035   -1.16198647977745
N           1.92178383893116    0.99970717653539    0.66623596516579
H           2.39934897637521   -0.48326368222797    0.25386646197560
H           1.82741062255639    1.54996671703708   -0.18077808836368
H           0.96659909234033    0.84558365015566    0.97770100600742
H           2.38197815084417    1.57645942638770    1.36056014130612
