    26
        -50.45262173  Gyration_radius:  2.52479574948 Dipole_moment: 4.449
 S           0.50060394893336   -1.35398483063267    0.29435583436800
O           1.08722156100420   -0.94852579948732   -0.98664825988927
O           1.71540051563294   -1.80937356524470    1.17566480197881
O          -0.09282001483000   -0.19711666822969    0.95997175248157
O          -0.42012871141974   -2.45890451942655    0.16561958458206
O          -0.81731048312953    2.09487420856840   -1.90382932159498
H          -0.95876229151921    2.34388408215913   -2.81836511779324
O           1.50575287139852    1.87850807546135    1.28297233170501
H           1.11748985018554    0.98908815277843    1.42922823051298
O          -1.07816998809784    2.47095557466159    0.92365723925722
H          -1.19496425035164    2.59460810695780   -0.02547724403066
H          -1.06460019443447    1.51434733671783    1.06623040325695
H           0.72669359547661    2.46698753630709    1.36448253798278
O           1.58319149063906    1.46454157674202   -1.18042413160878
H           0.68235887604505    1.80745276825129   -1.49861802586871
H           1.66292988212764    1.73485549449157   -0.15290966532105
H           1.45522457762095    0.40867667505779   -1.14057829142468
O           0.21404749909207   -3.57108048576742    2.44909076586655
H           0.44603641301327   -4.49389696446604    2.32223803136641
H           1.34649179606039   -2.42586982401409    1.84301720937436
H          -0.27807041147530   -3.29640775237042    1.64725211603847
N          -1.70546474844617   -0.32802673001222   -1.45585610155040
H          -2.64846554673412   -0.67144360861377   -1.59486503173076
H          -1.07064445903523   -0.96810701049999   -1.92107778135891
H          -1.22885481683321    1.17758416033983   -1.77694294431956
H          -1.48518696094219   -0.42362599976618   -0.46818893228542
