    26
        -50.45262171  Gyration_radius:  2.52480613691 Dipole_moment: 4.450
 S          -0.97935280785907   -0.43823877852930    1.00951804575182
O           0.32199184286293   -0.35865667411323    1.68015877892785
O          -1.51935498448660   -1.87504503453482    1.33174465576702
O          -1.92539197328947    0.53505235074102    1.50235308593149
O          -0.79962892724762   -0.37042484905185   -0.43845032735220
O           0.88506895096928   -2.12576380422821   -1.46308694383641
H           0.06168935017595   -1.77059543670670   -1.06428995699396
O           2.46333932012302    1.42619295170716   -0.76116192513287
H           3.19957943458625    1.97192279511981   -0.48102980967868
O           2.25668959863359   -0.94081547977532    0.25755150778168
H           1.78491849132516   -1.54199930546743   -0.48476790590407
H           2.43840569210340   -0.04052853740047   -0.17464722987576
H           1.46603113567979   -0.74103453149385    0.94162813601051
O          -4.01826426843298   -1.02027330003207    1.26878502409223
H          -2.49479211403304   -1.82005968476048    1.24804509090721
H          -4.50088228385838   -1.06396015646474    2.09741986706780
H          -3.44251416638123   -0.22910024794051    1.32482500451273
O           0.76991924101511    0.22506963369530   -2.73445958197675
H           0.02129116500498    0.24156701190214   -2.12213372901006
H           1.45011494077114    0.77926918541201   -2.33450743967638
H           1.00636264839981   -1.55183366508120   -2.24790194756011
N           0.23762194303854    2.22400170830519    0.36567001155728
H          -0.41793321561582    1.55773292291323   -0.03367878795378
H           1.62693635572584    1.81438809411493   -0.34094529984752
H          -0.18461696566779    3.14311648774422    0.30710309649566
H           0.29277157646705    1.97001635393189    1.34625855999322
