    26
        -50.45262173  Gyration_radius:  2.52479807511 Dipole_moment: 4.449
 S           0.24863217459471    1.43304333913908   -0.23426899178476
O           1.60116641838712    1.91757021706689   -0.08899475638712
O          -0.00009323130807    0.82098192612936   -1.54312259859202
O          -0.13978205045283    0.51085344863978    0.82985450126076
O          -0.73515855863291    2.65210528030439   -0.15838994799429
O           0.12780414869376   -2.81729411347870   -0.85239735893566
H           0.40476662873011   -3.44698641508896   -1.51956995151437
O          -2.60568963814793   -0.42015918877707    0.69078591329383
H          -1.87210636377004    0.21268352506484    0.84791719194081
O          -0.81043955960275   -2.09394901054945    1.75517622977445
H          -2.34979568168075   -1.18534000330083    1.24650776263269
H          -0.47285537184744   -2.62443615048265    1.02414370632572
H          -0.35059045921785   -1.24474801131869    1.70021186752052
O          -1.62568448476626   -1.04013901994963   -1.52297935565696
H          -2.17393651890354   -0.81666129883749   -0.63703933371551
H          -0.96844440300192   -0.20795075588324   -1.61379102880165
H          -1.00958754582975   -1.81319104795652   -1.29227798290572
O           0.95758882501879    4.00669042482551    1.35139299579580
H           1.45462387941381    3.25973831286057    0.95702585484900
H           1.32052429124204    4.80759075344220    0.96629270126718
H          -0.33702325014666    3.27841725983427    0.48247008859340
N           1.97758623582265   -1.00405210847344   -0.46551552258336
H           0.90057413300301   -2.17836084811626   -0.70542499802089
H           1.98576267843951   -0.40861989861159   -1.28682186032750
H           1.53328805060229   -0.43978320748168    0.25375094679803
H           2.93886965336636   -1.15800341894644   -0.18493606281599
