    26
        -50.45262173  Gyration_radius:  2.52483016765 Dipole_moment: 4.450
 S          -0.86632641989382    1.17887746880403    0.17406087142814
O          -1.37771284983099    0.13449174706118    1.06698219508642
O          -0.32944605137321    2.31387540686931    0.88731664068992
O           0.08521555803074    0.60368732968253   -0.77318744743491
O          -2.10820514474531    1.64862374522725   -0.66070910005447
O          -0.79401415671502   -1.46174684332185   -2.16223486529776
H          -0.68319211214213   -0.52924922911585   -1.87692086267993
O           1.29670008289958   -2.43028782310693    1.04563422604033
H           1.45273180181669   -3.00135403526233    1.79923529642128
O          -1.13417489530722    4.09695244393880   -0.85225530591266
H          -0.63004280370417    3.63864837501045   -0.14774105351224
H          -1.90322319923051    2.56095331612247   -0.95588687979316
H          -1.63956169890039    4.78819789132661   -0.41838858537309
O           1.82293193280093   -1.48815094550759   -1.60748268358746
H           1.53064471765636   -0.59866061221739   -1.36460620469227
H           1.91575782608318   -1.97100246101237   -0.77799918794134
H           0.12918874339294   -1.74545974465319   -2.32676271997505
O          -1.13573165308843   -2.17052098292867    0.20981191175133
H          -0.19361044537565   -2.38029868257010    0.52412364030449
H          -1.32909665347495   -1.20321854449158    0.60957324860953
H          -1.07045407057277   -1.98772041787239   -0.83781799057088
N           1.43995775166085    0.08886596838394    1.74753499369329
H           1.42016635709556   -1.47594694863907    1.36344395617694
H           1.25921447952458    0.53817267337551    0.85389967274482
H           0.61601597721935    0.28952475164296    2.30428722778876
H           2.22626691616694    0.56274615321213    2.17608901610677
