    26
        -50.45262171  Gyration_radius:  2.52482149285 Dipole_moment: 4.450
 S           1.01256617641265    0.86827143667684   -0.62512086729256
O           0.75099151788426    0.14935139730419    0.61916588660598
O           2.03742154942230    0.24335422883275   -1.42781892909032
O          -0.24038103808693    1.07256829625702   -1.35862235843490
O           1.49216233064819    2.30675902974253   -0.22459563764143
O          -2.42318075783095   -1.66869348854993   -0.15466383551641
H          -3.11076784587175   -2.04414971302605   -0.70656133255027
O          -1.08427367931686    1.21469190209828    2.18888862942893
H          -0.22078022812294    1.09520994313063    1.73792419636391
O          -2.28521675859276    0.90684423296952    0.01895933019882
H          -1.89145605149385    1.11731161893255    0.98639551727955
H          -1.44564669904809    1.05508861190285   -0.61818999087832
H          -2.44299499388497   -0.09533241995408   -0.01530211734694
O          -0.91828357904626   -1.45416731557536    2.27257631870591
H          -0.13465548742744   -1.17588307790574    1.77852197854075
H          -1.22127171740225    0.34593694303457    2.62056335229588
H          -1.54240701466687   -1.78171074789308    1.61455900085970
O           4.02560749713487    1.57004761917151   -0.35975270246479
H           2.46247985839569    2.24076615071166   -0.09950750558553
H           3.49800548881902    0.87733147427461   -0.80948027733060
H           4.55345098324246    1.99384157976085   -1.04037921301943
N          -0.09460720622943   -1.82256224068951   -1.34338724413661
H          -1.54327671202427   -1.80684698923840   -0.63815949914937
H          -0.10530380249867   -1.15208199807001   -2.10464236845924
H           0.50002843897821   -1.39688787256579   -0.63742566206293
H           0.37178972061161   -2.65905860130215   -1.67394469933221
