    26
        -50.45262174  Gyration_radius:  2.5247214706 Dipole_moment: 4.448
 S           0.96210571408673   -1.10559921233746   -0.14943630659789
O           2.15203822575527   -1.53741580451567    0.77650633490385
O           0.91093084679897    0.35385050142268   -0.11706461875129
O           1.19177315570982   -1.62843452467810   -1.47574189949465
O          -0.23732857535712   -1.66308827769279    0.48310870798479
O          -2.75963804363246    1.02575018302610    0.11038838581820
H          -3.69592621235481    0.83225241678171    0.04528947090047
O           0.52749767320004    1.43002121335024    2.26245384292201
H           0.99200440938657    0.98228652409806    1.52279077081132
O           3.80264070639831   -1.63868997642136   -1.28368721589934
H           2.89142266162946   -1.61083118460156   -1.64340045203343
H           2.95057290084446   -1.53102300621302    0.20747217829992
H           4.15422033873929   -2.50482783091338   -1.50194015576673
O          -1.41957600763590   -0.11522309263988    2.00392173958791
H          -2.01160833182689    0.37178744493295    1.33855658223337
H          -0.92580371190234   -0.85180757017151    1.41523434502508
H          -0.63233924031420    0.55722428099407    2.25559709345040
O          -0.51031439122431    2.79600427136567    0.20951360026447
H          -1.41524695232622    2.47903291192577    0.10737798025899
H           0.19349304397599    2.24846045039337    1.84005053850228
H           0.05267774983477    2.12588769938610   -0.20229296845170
N          -1.42042459781505   -0.24198947882087   -1.74938376922797
H          -1.55206712805080   -0.17836902827292   -2.75193657259682
H          -0.47649742961987    0.07285175770722   -1.54198038666751
H          -2.30307825903001    0.55673257397734   -0.66325109306960
H          -1.42152857528392   -1.22484323207715   -1.49814610237832
