    26
        -50.45771247  Gyration_radius:  2.41538823495 Dipole_moment: 7.102
 S          -0.50499688900545    1.61254420098185    0.83320116323773
O           0.56137915134067    2.15969178908127    1.67861498531729
O          -1.30367194433904    2.83122837970167    0.26416583116779
O           0.10230583201421    0.92877547224946   -0.30196897422102
O          -1.42530621729950    0.76081969902717    1.56416605702127
O          -1.68916080136046   -1.44695681805901   -1.75192173255889
H          -2.07168071187234   -1.96508587208862   -2.46108713813963
O           1.80572816566388   -1.63672853550264    0.81061937093690
H           2.06335559076843   -2.15747685370904    1.57304205794867
O          -2.88095238932619    0.91643220447610   -0.70236437990886
H          -2.73449795206593    0.67219213755662    0.22327172919454
H          -1.98952029991933    2.39134997014334   -0.27892535327081
H          -2.48289005882135    0.19321036318974   -1.21358049000137
O          -0.76577187978119   -1.70230086729344    0.89207481513857
H           0.79291221605593   -1.64834977759154    0.81649094129679
H          -1.03559149332654   -0.82808325152682    1.24808594165585
H          -1.17092746783648   -1.74428254069612    0.01097785955025
O           0.94333218878944   -0.94421271376332   -1.94544751863857
H          -0.74858609106032   -1.27900972655444   -1.98975141929970
H           0.65996682197264   -0.16571394727215   -1.42557845684239
H           1.36920027486163   -1.52432979254178   -1.30610135557783
N           2.54352438151939    0.91491522659839    0.69630965228477
H           2.28257410560647   -0.11260118097780    0.78860093507670
H           1.74152515725848    1.49656998565325    1.19517492701065
H           3.46434946390752    1.11923437515622    1.07194136150247
H           2.47340084625516    1.15816809376257   -0.29001082988284
