    26
        -50.44909146  Gyration_radius:  2.5647394106 Dipole_moment: 4.381
 S          -0.97332169730021    1.09655905491476    0.48336377263625
O          -1.34670676537602    0.69921694941893   -0.87614546878297
O          -2.21750864010732    1.86399109932681    1.03649350130599
O          -0.72894683527765   -0.06131160268419    1.31807557622013
O           0.15821983813995    2.01949041463326    0.47701884700395
O          -1.72987839263273   -2.19086479149042   -2.18529713818834
H          -2.49077997392981   -1.62656534125240   -2.02340924447841
O           1.94810774484993   -1.49418761521818   -1.03906439185787
H           2.80976542501076   -1.55277636730603   -1.45413243180745
O          -0.55046780508452   -2.41809888998973    0.12570314101967
H          -0.69802740899720   -1.58381046641417    0.62562199978491
H          -1.38063760532438   -2.43241611973435   -1.28032139795859
H           0.38929972084097   -2.43338235556202   -0.08636491719117
O          -0.60924302498366    3.20643362477228    2.66658213243234
H          -0.64003309300165    4.15854952377889    2.54966551417670
H          -1.86566571765933    2.33558009567051    1.81580682428537
H          -0.09050695824169    2.85048691057024    1.91300902133446
O           0.08770124451278   -0.49189127785801   -2.47644731455648
H          -0.44217626555474    0.14890496292581   -1.81671144026143
H           0.86668602917029   -0.88406751782409   -1.93624755739035
H          -0.62636937435920   -1.26045427024686   -2.54177704787686
N           2.08032492939867    0.06166683155763    1.01378826601246
H           2.04952473861291   -0.87630336133284   -0.22158345396504
H           2.94409316516197    0.37105692553031    1.44238746679187
H           1.53965929922288    0.88684795084369    0.74502858867416
H           1.51688743291238   -0.39265437702740    1.72495717264023
