    26
        -50.44909140  Gyration_radius:  2.56445235959 Dipole_moment: 4.385
 S          -1.34639716221563   -0.73471582972087   -0.17466456321633
O          -2.82269413722856   -1.22397465823767   -0.01944176771953
O          -0.73787179000993   -0.66093044117597    1.13734530169977
O          -0.65166730878324   -1.67267799695212   -1.05208203345936
O          -1.44904281922095    0.59266354644103   -0.78543963515449
O          -0.62040106458220    3.47616480244425    0.30953316126688
H          -1.54720753239620    3.23985447682014    0.21560194875030
O           2.43387941514364    1.07453626505663   -0.16965341457383
H           3.27948347416866    1.13459952239669   -0.61631247485830
O          -1.95517149438986   -3.73038164468144   -0.12529046616044
H          -2.33635832752893   -4.24645745892423   -0.83909185741551
H          -1.29137495391019   -3.13535609347378   -0.53637121293709
H          -2.72878190166314   -2.18320062623195    0.13728728468307
O           0.39949651554347    1.62610146494193    1.83294088629199
H          -0.26719950135515    2.88432591799429    1.03357772491494
H          -0.08634372791568    0.78824644215252    1.66066463063193
H           1.28684565829928    1.49081614094667    1.48266647953344
O           0.43353526139326    2.02871177174896   -1.44218944893663
H           0.06989750068683    2.78842503443697   -0.81323357252046
H           1.26497764577036    1.65508613246190   -0.97140905615688
H          -0.34243271823252    1.32167474354514   -1.28610416188491
N           1.82865244015620   -1.40380543021892    0.20918630009109
H           1.43285440263958   -1.43812835590853    1.14290168940663
H           2.23862356893674    0.07330793359967   -0.02872699800980
H           2.47973293085039   -2.17326268796361    0.11157142065610
H           1.03496562584872   -1.57162298150029   -0.41326615492021
