    26
        -50.45334085  Gyration_radius:  2.59287467485 Dipole_moment: 3.802
 S           0.80601988154284    1.02862936127815    0.70737636689040
O           1.89271117161683    1.72757895554899    1.53385155813458
O           0.23598990816254    1.96810263732457   -0.23399205434732
O           1.59778482306081   -0.02755678916090   -0.06109154847734
O          -0.15405630185055    0.42444551031905    1.58493609981256
O          -2.42807114317539   -0.77783815332214   -0.88546733721718
H          -3.08140819219597   -0.77685827499772   -1.58659197426254
O           0.08848072932075   -3.59682237489301    0.15922647290099
H          -0.40163273640348   -4.40040259636541   -0.02006891781038
O          -2.35273137365094    1.58111593788125    0.27204197317334
H          -2.21251547004932    1.34011431059720    1.19336064548388
H          -1.47548550770399    1.88560728925824   -0.03101055767906
H          -2.44750759956623    0.13192149491523   -0.48458264781706
O          -1.51206031360160   -1.95598639170586    1.50215831917405
H          -0.45190543184368   -3.07896225888057    0.80404976321065
H          -0.98659067063694   -1.17375720113612    1.73491702752641
H          -2.05259287946876   -1.67582435545702    0.74969057168852
O           0.13423990735243   -1.48687369783009   -1.44300243032799
H          -0.79189446216374   -1.19884024018510   -1.29660019681659
H           0.99043600971167   -0.64415021821461   -0.68017429691661
H           0.22084242616584   -2.34535472871312   -0.95844266903558
N           2.96771296999735    2.67189444494201   -0.59196763332380
H           3.47635101999179    1.94006637364765   -1.07027325919555
H           2.02676518847536    2.71236808233610   -0.97324928098053
H           2.47656730485348    2.17156504421715    0.82115881258384
H           3.43455074207431    3.55581785856962   -0.74625281635260
