    26
        -50.44909140  Gyration_radius:  2.56451993661 Dipole_moment: 4.382
 S           0.86444652156114    0.93425604234951    0.87383556200396
O           0.88000015905209    1.42804614252931   -0.50509034456035
O          -0.48092090192617    0.60391818965396    1.29577797254647
O           1.78707388488754   -0.18382648879833    1.04998643380866
O           1.38506548863950    2.12864823880232    1.73718775344653
O          -1.49306813342381    1.90471231428991   -2.59035732235172
H          -1.03150800355353    2.65246989199038   -2.20120886918567
O          -1.04061559926172   -1.85681198178603   -1.60498841240087
H          -0.94045155151133   -2.67704806011806   -2.09011172018787
O           2.22990031672125    0.38758277557621    3.55395554912990
H           2.13662352025355   -0.06210412712649    2.68636116734822
H           3.17121915488595    0.43686578003785    3.73462620925166
H           1.61182351813260    1.71052061804929    2.58996898323933
O          -2.36149670990784    0.51582843046773   -0.56538189628297
H          -2.27838439369639   -0.40057438399662   -0.85120626479055
H          -1.72216189105524    0.62397185706050    0.17440818316118
H          -1.98253310796358    1.47158742795145   -1.83398742848812
O           0.27946648887562    0.13669212724843   -2.50749565056162
H          -0.22862690678484   -0.69220187416206   -2.17989509682685
H          -0.45923806869084    0.84708877680746   -2.74117128681808
H           0.67230121673919    0.60892649640954   -1.64208378149786
N          -0.17074687664719   -2.16399711436714    0.80351562982470
H           0.02622229654398   -3.06077412933088    1.23071386105078
H          -0.83766716878812   -1.67203333955450    1.38907023914132
H           0.67720236157592   -1.59395514635150    0.84408782001423
H          -0.69392561464595   -2.02778845361150   -0.65051728001538
