    26
        -50.44909142  Gyration_radius:  2.56465790546 Dipole_moment: 4.382
 S          -0.99109535495474   -0.12511820301407   -1.17707688108485
O          -1.68185154990276   -0.50897573737864   -2.52557654302163
O           0.39258080128921    0.21194087159919   -1.43970943482663
O          -1.72924438151238    0.99267870238867   -0.59578822879695
O          -1.09413878034055   -1.32506594236004   -0.34341826601894
O           1.16262236074808   -3.23328515297078    0.87172094844421
H           0.59457140822558   -3.54418943879689    0.16158314181501
O           1.30165594655012    0.41316706739107    2.28950883207450
H           1.32507902062888    0.79863369426521    3.16644937237363
O          -0.31611575988785   -1.54049409589341    1.97729477385034
H           0.31579705872274   -0.75075676793332    2.14901481206185
H          -0.77062698356213   -1.36150453159735    1.03503318583472
H           0.30273029160167   -2.34135090314217    1.69339002171330
O          -2.23694865961400    2.05654660235554   -2.92010750740016
H          -1.83565209990503    0.35404732709589   -2.95571704805435
H          -3.17341058995505    2.24348418300136   -3.01618564343505
H          -2.08196915408877    1.89724684968694   -1.96392127282978
O           2.25060617801868   -1.04866212331176   -0.03751889969909
H           2.30689867073147   -0.47182002601971    0.73219010784380
H           1.71900430566696   -2.50712448887378    0.46859405005999
H           1.60778632741393   -0.61985780809422   -0.64635220420881
N           0.50744465492097    2.18099437710343    0.58768295076739
H          -0.41743629266497    1.85755150371024    0.29515788557115
H           0.99256172438513    1.15337303842379    1.64381012641561
H           1.09578706060465    2.04432279883731   -0.22766776345388
H           0.45336378687726    3.17421820352264    0.77760946400361
