    26
        -50.44909144  Gyration_radius:  2.56466080924 Dipole_moment: 4.382
 S          -0.03910410728719    0.44831301625275    1.47676332438635
O          -1.27726980464579    1.15726485629738    1.16600241910065
O           0.32749213568220    0.74964015271804    2.96595171814083
O          -0.22525525732736   -1.00338217335262    1.41845837731687
O           1.05822327768892    0.86918807040224    0.63066387094168
O          -0.45123542327650   -0.72192808409725   -2.52643524710123
H          -1.05487661702277   -0.79787586816177   -3.26671666782741
O           1.37901466618647   -3.26088389183302   -0.17492078328118
H           1.45039274695377   -3.19787031183583    0.78142297262016
O          -0.65890002148632    3.19584336702844    2.66724767941599
H          -1.37259205765585    3.40629567302495    3.27345136512930
H           0.19096355306415    1.71344659699356    3.04299233286127
H          -1.04001149465476    2.60233467864155    1.98447953179924
O          -0.89894309127744   -2.29336834519638   -0.56136052426819
H          -0.76079289471276   -1.67975773796906   -1.37185560161654
H          -0.01964651772533   -2.86441325899800   -0.48585817151645
H          -0.75893067390731   -1.68889552571542    0.29970621615565
O           2.05349480041020   -0.90668420201043   -1.06157985278469
H           1.80892167641340   -2.43072857410413   -0.52891742786598
H           1.47749062883982   -0.76340782770087   -1.82056537456819
H           1.78236530410931   -0.24013836122941   -0.39079482227483
N          -0.62316762144352    1.64158450853785   -1.50846278609843
H          -0.54362894655008    0.23605420909950   -2.16015510392727
H          -1.07866559790803    2.42637598570750   -1.95806187899514
H          -1.05838302221335    1.49592974103059   -0.59473417270794
H           0.33304436974480    1.90706328647134   -1.29672138303521
