    26
        -50.44909146  Gyration_radius:  2.5647748373 Dipole_moment: 4.379
 S           0.90314172218340   -1.23503581140795    0.20753221654577
O           1.01236306612215   -0.84379626400062    1.61014723325838
O           1.59437988114824   -0.28538787429292   -0.66765709066168
O           1.66811359849941   -2.58553324044988    0.02342181781973
O          -0.47353924557550   -1.41780656190656   -0.20294564212776
O          -1.29261858346146    2.33079520519986    0.04571185167059
H          -1.48440328358642    3.15835553766283    0.48902875966285
O           0.58031367059239    1.31902813278367   -3.23984629334482
H           1.21431008624454    0.60303156790443   -3.33469112226889
O          -1.45158813561539    0.26654176561383   -1.99590690413050
H          -1.11197931801957   -0.43782613853282   -1.39904223855985
H          -1.76763713195866    0.96952147987685   -1.41770687248210
H          -0.26679082524900    0.88536461706003   -2.93399066882984
O           0.89132531590645   -3.30552138457872    2.45739358807625
H           0.85200879663986   -2.32806298303907    2.37574659971184
H           1.37271712353840   -3.11971938748128    0.78558577263722
H           1.61492054851079   -3.49917356086643    3.05744277629835
O           1.06654047630016    2.10197978912549   -0.91050686218251
H           0.13321843888577    2.23784637137225   -0.50713910962678
H           1.35724484669579    1.11077325227403   -0.66615400919605
H           0.91171239322574    1.96135367240110   -1.94058637678615
N          -1.49727438840785    0.38267526983543    1.72368025169638
H          -1.39732729864559    1.58331482595883    0.74614080176867
H          -0.53805158062435    0.05137883847578    1.84899479918240
H          -1.93172501183331    0.45627540557068    2.63545417562949
H          -1.95937514151137   -0.36037250455087    1.20989254623149
