    26
        -50.44909145  Gyration_radius:  2.56472481173 Dipole_moment: 4.378
 S          -1.12725596612210    0.72622340195203    0.76560992272009
O          -2.01214362066069    1.80368281041019    1.47199847984832
O          -0.66854239676475    1.25562328581123   -0.50185625847915
O          -0.00610884566033    0.49754680817116    1.68011485289775
O          -1.93381200854100   -0.47968879359805    0.59934102512712
O           3.12935935542164    1.01082795889499    1.32656220781251
H           2.61329921733593    1.55931658349106    1.92358005038462
O           1.72226680069996   -1.68785940729727   -1.13523260329672
H           1.96552293895205   -2.58492988272365   -1.36822143640361
O           1.93497462387881    1.20780941889399   -0.97959041450937
H           2.02248293595612    0.33091556414500   -1.36921276285403
H           0.97313140498305    1.33226771183662   -0.81509086843601
H           2.79201841433353    1.22489058932215    0.41024254574805
O          -4.12040998595173    0.86809414543843    0.15845359612861
H          -2.86068896991995    1.75123987745487    0.99160034990758
H          -3.42312636607462    0.17805504817539    0.19467028994210
H          -4.83217396983652    0.56519070158227    0.72656715647737
O           1.81400181554892   -1.12084739683897    1.35516503311524
H           2.51599067864902   -0.34067692758805    1.41332403890482
H           0.93813957513253   -0.54744260021230    1.52954190746867
H           1.78827979945265   -1.39592910932493    0.36723418620046
N          -0.73147988980716   -1.25554604878672   -1.80229559797785
H          -0.73823117110452   -0.31678571220146   -2.18742112365380
H           0.74421698933510   -1.55577866414484   -1.42870303113741
H          -1.22727977682576   -1.17221470912940   -0.91190268555336
H          -1.27243158241090   -1.85398465373502   -2.41447886038146
