    26
        -50.45531358  Gyration_radius:  2.4988004175 Dipole_moment: 3.251
 S           0.58078141544637    1.16909293054979   -0.76971044199213
O           1.66204668409839    1.44369058581727    0.36388765965231
O          -0.69505809203416    1.27876130154721   -0.09273567380850
O           0.79171641418633    2.11297592616950   -1.83338038682076
O           0.82156812054573   -0.21790065099779   -1.20307230713908
O          -1.95053921252396   -2.15706490583305    0.57938519016066
H          -2.32092296409774   -3.02747239411059    0.42691588298114
O           0.98578923959366   -0.24962563720705    2.45074098129445
H           1.34768899522252    0.48883007077991    1.93634431485350
O           0.61728050042170   -1.88251477746204    0.59608854820465
H           0.74420171720997   -1.19924853655400   -0.22706859932122
H           0.84659936536895   -1.29010942788309    1.44682982812286
H          -0.37954694870319   -2.06813807982374    0.63792823494366
O          -1.58087132438266    0.20487611136956    2.19956856303257
H           0.02666678805728   -0.02935823227854    2.59403321428404
H          -1.39346722177663    0.74435263373140    1.40772944300275
H          -1.97318275262510   -0.61203069613500    1.86823437472143
O           3.36584863888944    2.08637344241500   -1.50174756209272
H           3.71908997790680    2.97888030189051   -1.52184838802287
H           2.47641332764335    1.62961074216610   -0.15575936945124
H           2.47779190676161    2.12976774371183   -1.91977909618212
N          -2.07864323407960   -0.68066968329397   -1.56907983853758
H          -2.09976664823458   -1.61446661177292   -0.26583634542960
H          -1.71956455249883    0.16785222247754   -1.12841946358222
H          -1.36359751109130   -0.97254782913422   -2.22529355846740
H          -2.90832260920882   -0.43391652996529   -2.09395521451350
