    26
        -50.45531361  Gyration_radius:  2.4987792296 Dipole_moment: 3.251
 S           0.38846947291254    1.11294791694596   -0.95236824106724
O          -1.06279404452877    1.75844524363754   -0.86999123011180
O           0.88162122381664    1.09685795286612    0.43546505500742
O           0.16244392828113   -0.23572460689709   -1.42999247412174
O           1.20113370850629    1.93595860868568   -1.80621014120921
O          -2.59004948731873   -0.04718352816373    0.57430493829606
H          -2.31656114018695    0.66118581320671   -0.02920693961147
O           0.36072142105536   -2.54465763505200    1.47886056414812
H           0.73016034058909   -3.06301311057986    2.19502016802738
O          -1.56208716268787   -2.12991595668595   -0.63555686897154
H          -2.43414171785765   -0.89473436853053    0.07807961850610
H          -0.94757397163366   -1.53507351309712   -1.10637886155347
H          -1.02409169001048   -2.59027236023839    0.01989940691458
O           0.04409672066910    4.11507828226602   -1.00006632983936
H           0.72339396636836    3.47925363283548   -1.31560644771938
H          -0.16086118954779    4.68495048358966   -1.74502503088978
H          -0.86765528544990    2.72085815483017   -0.81082156952411
O          -0.53566172701423   -0.17737910190556    1.99020089880788
H          -0.22343164821642   -1.13519871802003    1.86781981097907
H           0.11106057917137    0.41393813963629    1.36353303111902
H          -1.47905997843960   -0.10700801933433    1.50824171562430
N           2.23719469335363   -1.49708518124686   -0.00215781348485
H           2.64995732573674   -0.70736463680881    0.48061624520695
H           1.60416832881672   -1.09640303960216   -0.69634086345892
H           2.97323693074663   -1.98676592202145   -0.49527412928787
H           1.13631038283019   -2.23169454034405    0.90295548820473
