    26
        -50.45531362  Gyration_radius:  2.49880135354 Dipole_moment: 3.251
 S           0.19965194064956    0.85466571374960    1.23548422120762
O          -1.20127458550142    1.57730170405031    1.02375812590164
O          -0.12704027570488   -0.55234581488907    1.34367710536296
O           0.95886558697135    1.11835231338694    0.00113095361664
O           0.83247012740844    1.42625185629323    2.39292550052159
O          -2.42423919517106    0.21506229206309   -1.05661157789569
H          -2.27097716892474    0.75821955177409   -0.26778701178047
O           0.62837496534738   -2.17251679042480   -1.91799442219872
H           1.12889496795924   -2.53932770323490   -2.64806163118978
O          -0.12444878042520    3.78660154961520    1.89298547098471
H          -0.99084972691725    2.51761454686076    1.22206418604941
H          -0.46892979098406    4.18904046767125    2.69366719362905
H           0.47350992485115    3.06234513883486    2.18137365812295
O          -1.67310821748531   -2.13321572339720   -0.17386609267518
H          -1.01899858636582   -2.46546388642447   -0.80054267685240
H          -1.16005512047201   -1.68922537055710    0.52812645140805
H          -2.37637218209055   -0.72777391521846   -0.74403910867888
O          -0.13040721935975    0.29274500641784   -2.04374324237869
H           0.38323398589085    0.69728170758581   -1.18747535014203
H           0.14397936406955   -0.68346897897963   -2.08326677273070
H          -1.15023726098901    0.30447033067944   -1.74877210495732
N           2.18027763495690   -1.57573850995525    0.09377734582988
H           2.68672568138590   -0.72181789803200   -0.10982996532277
H           1.27618605029433   -2.03475283620402   -1.14825028548121
H           2.79992171729257   -2.19932509535394    0.59570777491606
H           1.42484614333411   -1.30497965631014    0.72556227473491
