    26
        -50.45531360  Gyration_radius:  2.49881469227 Dipole_moment: 3.249
 S          -0.24251961341456   -1.41379195227823    0.48904285470780
O          -0.70908873545519   -0.26991489550663    1.24529286365029
O          -0.92684750459792   -2.64807654631629    0.76288776473968
O          -0.20852614346561   -1.10578302648504   -0.95091719633501
O           1.28088884051342   -1.58214168480855    0.91376409494193
O           2.41645198933768    0.92470120156380    0.58792476265078
H           2.24050281807353    0.01863914985042    0.88601641638085
O          -0.76063442130294    2.67727893111315   -1.02303214879162
H          -1.03213635998584    3.26985570250845   -1.72534344726958
O           1.06694304476480    0.92024770611495   -1.51469404258901
H           0.39956273277630    1.67085233553862   -1.36974560057280
H           1.74720072422405    0.96433604294578   -0.70077229050309
H           0.51640038326434    0.01224963078295   -1.33288906743596
O           0.34561293048599    2.17105054131112    1.59626013845048
H           1.79940451037743    1.50201529813499    1.11214088747793
H          -0.07049585211610    2.64606142926756    0.86671457236043
H          -0.12329617670967    1.31661184717521    1.65251553644720
O           1.15532121641935   -4.07179913538068    0.15106329014749
H           1.29427436626852   -4.76540511153320    0.80013169889569
H           0.22504259704050   -3.77416366701405    0.25736307696158
H           1.48949301990414   -2.49447346772796    0.61057613127384
N          -2.49293074969185    0.75601794919303   -0.67752368382040
H          -2.02928816539463    0.34917095366830    0.13655139742124
H          -3.47756627444879    0.85059643801241   -0.46249720988643
H          -1.50912746611403    2.00362618553229   -0.89177382459058
H          -2.39464172074461    0.07223816432416   -1.41905699470062
