    26
        -50.45531366  Gyration_radius:  2.49876793045 Dipole_moment: 3.250
 S          -0.09653389608510    1.39690218805026   -0.58013332141214
O           0.74737715036939    2.00804221051609    0.62146194729741
O           0.78055347108803    0.38225199655510   -1.18907334950959
O          -1.23766588575361    0.77078779141153    0.05540640845389
O          -0.41303535624406    2.45895619722917   -1.49588617536107
O           1.06236345985703   -0.06762169591252    2.43048101095131
H           0.99653299718981    0.81621462585697    2.03642884055119
O          -0.61500316028765   -2.89360067719154    0.20366581963811
H          -0.51350978742471   -3.80308522589468   -0.08024417221128
O          -1.40238934025800   -0.90432500742697    2.14346027811505
H          -1.35242111768195   -1.75382133492365    1.68863842778877
H           0.12446150569148   -0.36975525876225    2.56472591015235
H          -1.53154546805329   -0.23913447914950    1.44060484562942
O           1.48365803257961   -1.39656319232236    0.35723559325431
H           1.42002219936042   -0.89184624268269    1.28919349183538
H           0.70959099230796   -2.05241891213617    0.33466027069822
H           1.22971944023621   -0.63348159933628   -0.35948390117679
O           1.85069242290014    3.65560854700836   -1.07110923851929
H           1.71841541219422    4.59949755413578   -0.95579139437482
H           1.34659295157647    2.64022920006624    0.16426840192863
H           1.04266309849588    3.31407386739262   -1.51354137561889
N          -1.52568045685204   -1.39143423501205   -1.72655050747076
H          -2.38554055940609   -1.51561028319881   -2.24611871892212
H          -0.78117204492348   -1.19927467309491   -2.38681017301073
H          -1.61769563357350   -0.54629300484516   -1.16048835809031
H          -1.04045038731302   -2.38429834629385   -0.56500057064705
