    26
        -50.45412438  Gyration_radius:  2.4228982803 Dipole_moment: 7.279
 S          -1.00532574183393    1.49299455810449    0.84970398403642
O          -0.25120397743423    2.25954200847000    1.87622227540354
O          -0.13181564750950    1.19488861683461   -0.26648507858181
O          -1.30757880301611    0.10360992168500    1.54648668711969
O          -2.26609682141638    2.08109430227271    0.50338634456704
O          -1.15831725940303   -1.70116037974486   -1.76978906715462
H          -1.65638252070057   -2.34939142039899   -2.26987307084254
O           2.52405354114748   -0.39794618743697   -0.44088408240321
H           3.40679534224808   -0.52860479024254   -0.78910567904653
O          -3.03562842090382   -0.12871769236763   -0.74134538119132
H          -3.34169535357084   -0.57038766512793    0.05499814345540
H          -2.79591961271695    0.77226584015381   -0.44037389571093
H          -1.81960675691918   -1.03971273813258   -1.44553974996971
O           0.27897140036695   -1.72006836862579    0.55445319743893
H          -0.69425832246839   -0.59656837508991    1.18668850153767
H          -0.23477503290231   -1.87553034114819   -0.25997881469599
H           1.11573714344134   -1.34104111408589    0.24251397488539
O           0.88846884544388    0.08161416967649   -2.40575005979427
H           0.25639747647976   -0.65471995903913   -2.41748160175390
H           0.44951958666416    0.73925800218915   -1.83596308866792
H           1.94309888503140   -0.18413364191938   -1.23328989316699
N           1.80521886243270    0.85750234569577    1.90612678346409
H           2.01899031144939    0.57737899801015    0.92869032905388
H           0.85698206700111    1.58470215972374    1.90355010564810
H           1.54918417498519    0.02765956299161    2.43355752728285
H           2.60518661410547    1.31547220755180    2.32948158908847
