    26
        -50.45531344  Gyration_radius:  2.49902953225 Dipole_moment: 3.249
 S           0.47587462527350    0.73091763640911    1.23714830627198
O          -0.78818719516270    1.69587631954747    1.22034244224885
O           1.11100711475962    0.93799100771409   -0.04809659532364
O           1.28358673264159    1.06383010123609    2.37880710995178
O          -0.08012428562435   -0.62994865593992    1.32889814084772
O          -2.10136408416244    1.13463392553567   -1.15532308184119
H          -1.78007303008868    1.58141997092119   -0.35659884848284
O           0.20111008195562   -1.90595455586636   -2.26423087048479
H           0.17459863199099   -2.79117777510740   -2.62993387807683
O          -0.79215161469503    1.63915581014510    3.82689789927791
H          -1.03594834350438    1.74421508865369    2.17116441168562
H           0.09639023596171    1.32377456747689    3.55059355816089
H          -0.65157328487566    2.45637607281615    4.31070727869871
O           0.11644462276864    0.96795067672998   -2.53864472852197
H          -1.37338619036905    1.23089044701249   -1.82581199881265
H           0.62169151418075    1.08226377283288   -1.71117194075990
H           0.22174026860613    0.03951112505940   -2.77920754777945
O          -1.58272075153356   -1.22657441493748   -0.52466890976682
H          -0.95422654859679   -1.01542265285361    0.32424125332110
H          -1.93330012864044   -0.26807840622351   -0.81696442979099
H          -0.94977979422926   -1.53458320995267   -1.25565562083664
N           2.04674739095966   -1.69074900806065   -0.43105850858866
H           1.72889130880718   -2.13456180217375    0.42286455323549
H           0.98367915716326   -1.87078193180806   -1.61823015425094
H           1.92384956442478   -0.68771676362098   -0.28303722854671
H           3.03722402200429   -1.87325731555774   -0.53303060185283
