    26
        -50.45531357  Gyration_radius:  2.49885716946 Dipole_moment: 3.251
 S          -0.74530197123229    1.08092760261635   -0.75669752571497
O           0.59299653379243    0.68355426073723   -1.14286728119077
O          -0.52925865232901    2.12633623955015    0.42231367195216
O          -1.51613282965184    1.71780061006511   -1.78962072433035
O          -1.46568741840931   -0.04770833255974   -0.14295759064272
O           1.17874884080976    0.87513574474145    2.21015719701961
H           0.69009663970403    1.54860897594638    1.71167806285011
O           1.29801340099627   -2.64067484711740    0.36914377152743
H           1.26593176000009   -3.58560043145992    0.52460310312061
O          -0.26917947350848   -1.10318510513299    1.72898148094262
H           0.36191715659562   -1.75393945987638    1.27278483717053
H           0.32956179574611   -0.29466663124048    2.06827594554437
H          -0.85140957613634   -0.66812212111121    0.93390188510725
O          -2.90346634831290    3.08286313819496   -0.07243372678135
H          -2.64737191239548    2.56834238769403   -0.86930249419297
H          -1.40475141067683    2.57135718594452    0.47894734803706
H          -2.98752498152466    3.99657365380058   -0.35480691925204
O           2.69571333296020   -0.11368826662974    0.31829390672800
H           2.55273056587522   -1.06788965845149    0.32216415265778
H           2.07370649801549    0.24082981705543   -0.34550439645403
H           1.93312467287780    0.60360753434988    1.62186658303507
N           0.01751538348159   -1.99178151079878   -1.81078288037023
H          -0.98111566226212   -2.02549458604599   -1.64151024913102
H           0.19157573027288   -2.33323202335500   -2.74769652241238
H           0.26924121103883   -1.00234908969033   -1.78330747098018
H           0.85032672426696   -2.46760509721549   -0.52562416428277
