    26
        -50.45567451  Gyration_radius:  2.46097067332 Dipole_moment: 5.089
 S          -1.04105120662581    0.05485560617968    1.64390450016329
O          -1.51430566532587   -1.20426593973923    0.89054956274790
O          -0.68548990678673   -0.28295286669707    2.98814012402609
O           0.01251291824802    0.67881756610286    0.88174712599988
O          -2.27398725248672    0.96305277587181    1.63885043496552
O           2.32963754999161   -1.45056703137400   -0.00154787278358
H           2.81085786280292   -2.27842324406373    0.04441487726579
O          -0.09795124782737    0.84190010731279   -2.45167488788473
H           0.16963513924658    0.91779182232402   -3.36874158977291
O          -0.10852980556470   -1.56260675310021   -1.16767960754796
H          -0.17743700025152   -0.73222361625853   -1.68044344303796
H           0.79475809497790   -1.56122417815563   -0.78372455002676
H          -0.95796874652805   -1.38013967344505    0.03736684930930
O           1.90521896119478   -0.79611448240864    2.54252603763896
H           0.96299686956873   -0.71783282449957    2.79071726185150
H           2.13748511587881   -1.19728197598565    0.93559782466604
H           2.27686674556742    0.07602759709637    2.69274352619700
O           1.95926002776913    1.20806296166343   -0.85507313271504
H           2.38174931841717    0.34262859535692   -0.76536596524748
H           0.69702188675296    1.09017149250392   -1.90599161573937
H           1.33792462000079    1.23785942836347   -0.10724962709299
N          -2.59475175598880    1.16582290158172   -0.89095580268214
H          -3.13229574342064    1.95642675754095   -1.22193858247211
H          -2.45795957443229    1.12660267196827    0.62269653952063
H          -3.05784870239079    0.31309431371708   -1.17892853956416
H          -1.67634850278961    1.19051797811382   -1.32993942779703
