    26
        -50.46000143  Gyration_radius:  2.4962457598 Dipole_moment: 2.094
 S          -0.02783820513629    0.87620951447850    0.59143390823005
O           0.69627198537995    1.09463509797597    1.95955976030366
O          -0.45231515037161    2.15704710645776    0.06948164817587
O           0.95914684346647    0.23417027103739   -0.28594361712204
O          -1.13856479695343   -0.02754629718408    0.86543292218164
O          -2.16606081351795   -0.95023150926869   -1.38357646772167
H          -2.01256569817323   -0.69443773968356   -0.44809048872166
O           0.36833855528515   -3.49128349024896    0.16796286797459
H          -0.43128573404751   -4.01224057273930    0.26642086698613
O          -1.89915420537217    1.59787686643564   -2.08834927384802
H          -2.64514791694281    2.20030859035763   -2.06810232056731
H          -1.32783343310810    1.85476340756788   -1.33200460502549
H          -2.19666218776548   -0.08360570484483   -1.84965979865744
O           0.25449673616462   -1.82011771675977    2.20097867232289
H           0.42571976877795   -2.92422355488837    0.97838259808333
H          -0.36464916790204   -1.16995683355560    1.80826500712541
H           0.97846409312175   -1.29385739268987    2.54633420273521
O           0.19673464697708   -1.70478711912752   -1.64648044928813
H          -0.84179940776684   -1.46733638625188   -1.65829703263308
H           0.60192903525010   -0.88367246417347   -1.14231276676538
H           0.31122521644796   -2.48783003697631   -0.99235625221633
N           2.27346123015751    2.70290392924955    0.67058196002746
H           2.71832794804553    2.04140768738220    0.04599296431144
H           1.41891762419454    3.01071972646784    0.21534080515364
H           1.41301681398696    1.74367772955899    1.71105840489236
H           2.88782620978281    3.49740690142158    0.79794649405740
