    26
        -50.46000135  Gyration_radius:  2.49664826959 Dipole_moment: 2.099
 S           0.54495593796059    0.49632520598508    0.75891400134710
O          -0.05144077113591    1.34675085879079    1.92705915355795
O           0.25852378068414   -0.89475145044303    1.08818712986682
O          -0.18596450201783    0.90515608676438   -0.44725205994988
O           1.96036047096880    0.77371496683329    0.64422112060226
O          -3.08685036569403   -1.53218958049510   -0.69811675037845
H          -3.16035426785568   -2.47344469286963   -0.52708564192757
O           0.70176202713077   -2.45468091645319   -0.99398069071007
H           0.54463967119534   -2.10431992987498   -0.09029796267312
O          -2.29909164182318   -0.55422045265728    1.61754928320862
H          -1.34530393874751   -0.76520939162296    1.53945585476694
H          -2.90317922073237   -1.10914288834711    0.17881954296417
H          -2.32702959321301    0.36749033581985    1.88200080408636
O           2.87810639028313   -0.94061110804355   -1.16706432460701
H           3.72412741602838   -1.24660610726642   -0.83466808712776
H           1.57131366373301   -2.06237952255627   -1.23749798203995
H           2.57528336466755   -0.25321823507063   -0.53436289705048
O          -0.97396710627226   -0.89137169884560   -1.97811057355797
H          -0.65717942693941   -0.06774526412230   -1.41805479036661
H          -0.27440139455177   -1.64033508959345   -1.68624344315284
H          -1.87469802338227   -1.15260399359543   -1.56043897178732
N           0.90288715887689    3.41415942420672    0.68187891764233
H           0.33922458682308    3.39082585119921   -0.15910824631792
H           1.70542390221133    2.81308032064220    0.51756958351684
H           1.22290540962004    4.36227864397356    0.83544568778947
H           0.20994646217238    2.27304862766362    1.66118134228816
