    26
        -50.46000135  Gyration_radius:  2.49602269868 Dipole_moment: 2.087
 S           0.56021599342920    0.89317067912862    0.09241854519631
O           2.03712724617301    1.11263784535661   -0.37057481302272
O          -0.23985459377803    0.85019304284421   -1.12558967384682
O           0.54263674051761   -0.40912773931197    0.77062768331813
O           0.17883583194201    1.96526941934879    0.98587824244201
O          -2.67031977861845   -0.04219738171446   -0.61369381922531
H          -1.88195421150650    0.37212686881515   -1.02707513016317
O          -0.35969794055232   -2.89972418792665   -1.95192771922077
H          -0.97411353734243   -2.85986310000193   -2.68765802931017
O          -2.41345243669450    1.61074923214781    1.45077434168969
H          -1.44617511820069    1.74940258987749    1.35235570978794
H          -2.80487337922297    2.48625407638842    1.43942199549185
H          -2.82076866221180    0.51293451973718    0.18533343142230
O          -1.31931772857475   -1.96564129396571    0.22058342609317
H          -0.52034349876376   -1.37237797557766    0.54015431641683
H          -2.01812218870220   -1.23440478692934   -0.11454103824452
H          -0.96522952971225   -2.43992772346407   -0.61840276139021
O           1.26880412132655   -0.88175858462528   -2.41510207005773
H           0.70176383587342   -0.16498458469527   -2.06154923051457
H           0.34197724159452   -2.22767593822652   -2.14604341090748
H           2.12734584442354   -0.73882871953991   -2.01160966026079
N           2.63899944084215    1.14399945020238    2.15356764503735
H           3.33070887720376    1.48071517895877    2.81161291287533
H           2.39378622766827    0.19136066998331    2.39441043307727
H           1.79279553223931    1.69884205188972    2.24481937028515
H           2.51922566064690    1.16885639128991    0.50180935304131
