    26
        -50.46000140  Gyration_radius:  2.49617662354 Dipole_moment: 2.093
 S          -0.58474716033849    0.27702424383262    0.83681605160091
O           0.42181355504768   -0.75450506547766    0.55563604882546
O          -0.61432550836285    1.27179521543687   -0.22857484651146
O          -1.88174768675026   -0.30329596299903    1.10914512049379
O          -0.08099917383723    1.02762846647131    2.11221178912012
O          -0.91895188521601    0.11094953876903   -2.57916352574196
H          -0.87873515380782    0.75710431641942   -1.84095456234525
O           2.84361799000985    0.89756893923895   -1.86016819323026
H           2.71329954699093    1.49613379950389   -2.59851162501171
O          -2.72049767730114   -1.28526940038002   -1.21338597866576
H          -2.42901061156530   -0.98750056569011   -0.32408946388796
H          -3.65507111057120   -1.07616573823836   -1.26505085990927
H          -1.64258417142677   -0.49726636618572   -2.30401028958040
O           1.16339924740903   -1.02250104240610   -1.80440931305123
H           1.90662817922566   -0.31814245317985   -1.87996555023568
H           0.89375599598972   -1.00825738399750   -0.79456920912396
H           0.30030213702566   -0.60614447206548   -2.27004679813012
O           1.81190936913107    2.21486558269451    0.17426128925355
H           2.57333220993384    1.40053609305405   -1.05044806175795
H           1.94873738767237    2.02462374980939    1.10449175130048
H           0.86936188392916    2.00330986180747    0.00971794511002
N          -0.40012489366506   -1.22878368751970    3.35384258777733
H          -0.12018847905562    0.30774122869839    2.80287024569314
H           0.29690728743618   -1.78552731720365    2.87452164708367
H          -0.56116541350842   -1.62461255253667    4.27157136277322
H          -1.25491584439688   -1.29130903787466    2.80826243812778
