    26
        -50.46000134  Gyration_radius:  2.49659709165 Dipole_moment: 2.104
 S           0.65631775776466   -0.82147433732598    0.10347834685308
O          -0.73506315123337   -1.22630555649180   -0.05652799408962
O           0.80857052620008    0.61913962466043   -0.13632641364406
O           1.21946998848833   -1.21243098550855    1.37764168584671
O           1.44552261492151   -1.53031373612527   -1.04469862802977
O          -2.20542463816322    1.56733503875551   -2.24578638512653
H          -3.12405997029969    1.29175525736693   -2.22053401288308
O          -2.31628013530759    0.26670911762865    1.43933164757459
H          -1.94084022253221   -0.44503642442578    0.87676066452192
O          -0.38896467283055   -0.16671645392771    3.21639476738705
H          -1.76647926201179    0.22014482955528    2.25468579945271
H          -0.48037525449402   -0.83590504754521    3.89734172377090
H           0.26278715046078   -0.52534813730365    2.57524322159158
O          -0.90722650454575   -0.69216445073062   -2.62995877657045
H          -0.91575077807730   -1.01345672165016   -1.70423811046631
H           0.00462043754902   -0.78207687063939   -2.91406166959994
H          -1.68675209123363    0.76355015199180   -2.50382230106425
O          -1.22560795691364    2.03814606568273    0.06312105409515
H          -0.31320848404537    1.53358268388289   -0.01214103562772
H          -1.64071074084887    1.95606398342198   -0.87237631416291
H          -1.78358476416379    1.39299693883475    0.70140152828236
N           3.56967148001429   -0.44155534191193   -0.02569337455821
H           3.36487890231563    0.53644958655027   -0.19023350186300
H           2.38371640959913   -1.24572447579547   -0.85517336690850
H           4.57279857687221   -0.55879679763033    0.04390079079788
H           3.14197478248938   -0.68856795132693    0.86227065442937
