    26
        -50.46000130  Gyration_radius:  2.49674378782 Dipole_moment: 2.106
 S           1.01881967240910   -0.21354556592813   -0.17985802606581
O           1.88697296265958    0.32428060892094   -1.36326060849291
O          -0.25939623478584   -0.62320970730316   -0.77518722662921
O           1.70039251054620   -1.32926619110641    0.43987057481953
O           0.82832518575321    0.91484174027964    0.72345148643367
O          -1.04075619375412    0.37455183781880    2.50687443851215
H          -0.28659381180098    0.76686829599227    2.01555120854479
O          -2.48620695022850    2.44000427265093   -0.48082864436243
H          -2.59361210301086    3.09622225196845    0.21075315884191
O           0.06296867611924    2.64063361619548   -1.11325454633347
H           0.48139712892408    2.29139075386391   -1.90268623621384
H           0.42878678036854    2.10757624609866   -0.37686481640940
H          -1.56678523415320    2.56000305326923   -0.83007406229706
O          -2.34380137447941    0.05079096741293    0.40482081477852
H          -1.92135038634342    0.17489006614539    1.37499528101799
H          -2.50825223451239    0.99388372786066    0.03371220670910
H          -1.52842816964756   -0.30568612329443   -0.14363727209027
O           0.25941709040364   -1.94126564600422    2.58726315469747
H           0.79211429693774   -1.78776558498548    1.77664555460809
H           0.89168491180519   -2.13256192075795    3.28258375366375
H          -0.71558999417845   -0.52697979922848    2.73219429729096
N           1.80997833195376   -2.09625892606538   -2.29642662149099
H           1.93643921124045   -2.36198386535234   -1.32389291845787
H           0.82126257220418   -2.17896976974485   -2.49917443303621
H           2.01169905961749   -0.49740963256320   -1.91678964885804
H           2.32051429596755   -2.74103472614357   -2.88678085917545
