    26
        -50.45731623  Gyration_radius:  2.44433752659 Dipole_moment: 6.863
 S          -0.76780455472463    1.07733789551276    1.50224739515730
O          -0.83406129051035    2.50597381348585    1.28726201289429
O          -1.86015723113920    0.35425312400093    0.87500517254014
O           0.54436440373344    0.56594028415998    1.02970494689304
O          -0.80078593834374    0.78837900647930    3.03357947759102
O           0.42975024817125    0.75856209055371   -2.55833019062456
H           0.09803534312016    0.89705727481387   -3.44643088863455
O           0.13351829408392   -2.85615089918629   -0.06144463834401
H           0.40364735862017   -3.76477737699651   -0.19817080104923
O          -1.07020845752824   -1.76432249622049    2.28619213552410
H          -0.52133998924775   -2.23839999005526    1.64242431197882
H          -0.79168396912406   -0.18984670873074    3.06824669168169
H          -1.67479030885381   -1.23846656945061    1.73948174646495
O           1.94648146224634   -0.99263335030307   -0.64344615008709
H           1.67498668774940   -0.55898935472606   -1.46032338382367
H           1.53487598850998   -0.47644577991565    0.07442067747318
H           0.91570217191409   -2.28922204412002   -0.25736165412295
O          -1.26414774402651   -0.81394500483742   -1.40754719020619
H          -1.59200987109142   -0.34037437499659   -0.61242451840004
H          -0.23812512764558    0.14493038269681   -2.11722324460007
H          -0.88929141860942   -1.63815846062666   -1.05802539116410
N           0.95229270770915    2.45936116777282   -0.58180964476493
H           0.71382860622291    1.99432952874436   -1.49283794921966
H           1.75453912371472    3.07600976920314   -0.64571909936884
H           0.12923609334602    2.89822205764677   -0.11406505223526
H           1.07314738169115    1.64137601509885    0.11659523843729
