    26
        -50.45444060  Gyration_radius:  2.55185998932 Dipole_moment: 4.669
 S          -0.65030494059491    0.67659218681630    1.06898340981338
O          -1.55807457513557    0.79297174884104   -0.03630502194761
O           0.76650589635061    1.05206861170850    0.64673196453499
O          -0.98472742695246    1.74236077179049    2.12057701072533
O          -0.63071923782646   -0.63001691633994    1.68788747935424
O          -0.24344686708116   -2.03514463043309   -1.87550297273236
H          -0.10071204614172   -2.93386109642706   -2.17595918739994
O           1.71882321456505    1.32686682333534   -2.72499111254684
H           1.77315913562761    2.17854513745418   -2.28870999503141
O           1.80280263244379   -0.56375585454804   -0.90730096324890
H           1.96140543204988    0.07456600629914   -1.65407329600565
H           1.23525617978448    0.31173219641781    0.00757358852657
H           1.09580432983765   -1.16520460673880   -1.23062191325036
O          -2.15094109919217   -1.94534777888322   -0.06736520648123
H          -0.97523994759052   -2.07385411661972   -1.20425040407546
H          -1.62080228569872   -1.65296496215507    0.69829759092250
H          -2.63509023214996   -1.15589404864482   -0.33130591453295
O          -0.83847819759398    0.60096869387318   -2.67005572750990
H           0.75630012195627    1.14945824323855   -2.85972436345209
H          -0.73221842269704   -0.36064024012088   -2.67042192720427
H          -1.18288910781032    0.81784313779857   -1.78773156226002
N           0.72032578958469    0.74929269586639    3.75742790302543
H          -0.34776768421165    1.51746688311452    2.88853935593984
H           1.66852205175028    1.00145450692374    3.51210945204312
H           0.64888090545555    0.67276689544197    4.76343135221417
H           0.50362638126091   -0.14827027802426    3.33276046057773
