    26
        -50.45556509  Gyration_radius:  2.42516734785 Dipole_moment: 6.868
 S           1.47893837240898   -0.07928321494381    1.29474808221738
O           1.26547598056652   -1.22710424219101    0.44882478249199
O           2.63547812056147    0.71159318657817    0.89743797943701
O           0.27420273269257    0.79228167034116    1.32238286007571
O           1.70581132626681   -0.57568754740117    2.75524505855556
O          -2.08681190222091   -1.95939287232996   -0.05897011644054
H          -2.97556415625066   -2.28598680646251    0.08567465615080
O          -0.03885145621038    0.96139103130124   -2.46720616258338
H           0.13034145339488    1.00870565942280   -3.40905372012994
O          -0.80603820868291   -1.42927700134723    2.49138832658138
H          -1.00560187712095   -1.92205130939103    1.68056324662537
H           0.89847714439142   -1.10297197826845    2.92320197896562
H          -0.81414731260947   -0.50082937897003    2.22433651989497
O           0.03695164871886   -1.52250092586961   -1.83427634541010
H           0.62928480185742   -1.50042305701063   -1.05070472867298
H          -0.79235243938295   -1.85979470337263   -1.46259735552244
H          -0.00067223835353   -0.02807681504567   -2.23679480944918
O          -1.90099783825709    0.70678312214700   -0.25525074903505
H          -1.15663863413222    0.75002809375316    0.37578807507558
H          -1.52198480084070    0.89031504093033   -1.12288948057098
H          -2.15037114834995   -0.97794780198804   -0.10225570211123
N           1.24700454497394    2.27725324863960   -0.53737327014958
H           0.85370531582668    1.82461044103322   -1.40523560604685
H           1.42460639607932    3.26938438666081   -0.65155119135469
H           0.58643468069182    2.05257866947704    0.24703258799096
H           2.08331948397998    1.72640309430773   -0.15246493658874
