    26
        -50.45514714  Gyration_radius:  2.45650166333 Dipole_moment: 5.625
 S          -0.54946462197797    1.20541099484334   -1.45895971694648
O          -0.36107335950835    0.61874283374957   -2.86017481745177
O          -1.11825635720976    0.20690668864639   -0.59436858517868
O           0.89918892636850    1.49342121452580   -0.97636616678938
O          -1.25559818158145    2.44558893155414   -1.53628315551371
O           0.39512313493889   -2.53817065538305    0.39975805306526
H           0.62279606402524   -3.31409035991677    0.91407657758457
O          -0.23041996391257    0.83747052099445    2.61039820104424
H          -0.12319350216808    1.22243044690956    3.48175797806655
O           1.59498370940603   -0.14198070906776    0.83316977118104
H           1.24190189001215   -1.02865129936741    0.61431475031226
H           1.21075105120060    0.81231579921504   -0.27401724909813
H           1.02988028505695    0.18142442541319    1.56152695061016
O          -0.62118480440157    2.94902417394947    1.02092589622050
H           0.25343702489570    3.28796962048727    0.81286012402173
H          -1.05712755172379    2.83889649604559    0.15642207315804
H          -0.49477947496978    1.57745840217279    2.01441349942582
O          -1.64377987501963   -1.32359317049615    1.51526727677750
H          -0.43646470501533   -2.16680271782664    0.80895658736478
H          -1.24738398517913   -0.68735798811583    2.12973880094984
H          -1.77608156782461   -0.80032530896390    0.70769253589633
N           0.77407510371268   -1.61440564498503   -2.36196231518585
H           1.77530002332081   -1.47319496256345   -2.32102974779359
H           0.57482897908680   -2.34186401497866   -3.03595936979670
H           0.45709601413994   -1.92467215582746   -1.44494691255578
H           0.08544574432676   -0.32195157101330   -2.71721104936671
