    26
        -50.45622834  Gyration_radius:  2.46191715353 Dipole_moment: 3.319
 S          -1.10324889441832   -0.13371781619049    1.77628223819600
O          -0.22657740764709    0.03657798027330    3.01598647137170
O          -0.81940088202703    0.95999853879267    0.85803760252922
O          -0.60939622528368   -1.44258704984235    1.12511421924368
O          -2.47003899203836   -0.29207529270112    2.12409728578301
O          -0.73355520412039   -1.20374783361752   -2.37500462700628
H          -1.09640736007038   -1.89131075397695   -2.93456767385649
O           1.44685164470787    1.46936259132140   -0.41751059305527
H           0.61674816948480    1.48017140317366    0.09906687359264
O          -2.59365343334412   -0.14664883855330   -0.77758432756367
H          -2.01563882408983    0.44822956981907   -0.26676766093139
H          -3.11110672247583   -0.59952305441867   -0.10578962624147
H          -1.46574715561359   -0.90282924329530   -1.78636917913438
O           1.27986270623227   -1.16386468159029   -0.52482769954158
H           1.46988585618882   -0.18900061410251   -0.53744698402098
H           0.19881298510533   -1.33568384198515    0.49010829639965
H           0.73701056082066   -1.32552201592962   -1.31706365518188
O          -0.02180991347640    1.47471841869041   -2.70144942225108
H          -0.19607493942320    0.52123397080365   -2.75922141407357
H          -0.85535688981695    1.87884610601284   -2.45115306496733
H           1.15735334588538    1.66716823686035   -1.32931372834326
N           2.16882119156645    0.14166811249357    2.13440458785066
H           2.22199689447253    0.85611665658907    1.41437804026277
H           0.77948467062034    0.10784948258831    2.70121519269469
H           2.37645763011317   -0.75136067818134    1.70307374149123
H           2.86472718870598    0.33593066702726    2.84230509671567
