    26
        -50.45622833  Gyration_radius:  2.46243361774 Dipole_moment: 3.315
 S          -0.98248938874933    1.46480114088919    1.13262811955846
O          -0.53737883748942    0.10976425794160    1.42475009824280
O          -0.82361322697745    1.70183997746301   -0.38400985870314
O          -2.32429133408362    1.75217337316870    1.49455405168182
O          -0.00614244713181    2.44458467958962    1.78168980485476
O          -1.13296157821002   -1.32247358106521   -2.14359608951882
H          -1.67117397450620   -1.42325828798403   -2.92954030045776
O           1.69286177616530   -1.07862004214748    0.62664015270936
H           0.92102815879644   -0.71450432058132    1.10387553024790
O          -2.61415242000916   -0.72298125089577   -0.00452074732086
H          -1.74292916363819   -1.05456687227202   -1.41607883784609
H          -3.16765177135717    0.05250597924412    0.12364132217634
H          -1.88982765041577   -0.60239394720476    0.63554830117721
O           0.10953753102592   -3.05816096359387   -0.34693025347978
H          -0.59929716275780   -3.13866903286621    0.29476529281650
H          -0.26829499625483   -2.57645901883447   -1.10078727030241
H           1.39093147249711   -1.95935642566245    0.33083053893105
O           0.96391881992899    0.31065039694425   -1.49750082072374
H          -0.05713083194025    1.17195386305583   -0.83025204306783
H           1.35527978783440   -0.23824504271465   -0.76798499573533
H           0.34659499057198   -0.28511375655492   -1.95825867957705
N           2.29095300650342    1.81661120023818    0.85667517659084
H           0.96822386055370    2.21102790375408    1.44624219963134
H           2.27382184829500    1.98079404376991   -0.14301628250428
H           3.05921965030440    2.33406612875627    1.26308540472501
H           2.44496390102271    0.82402962763736    1.00755019583752
