    26
        -50.45622830  Gyration_radius:  2.46240935501 Dipole_moment: 3.315
 S          -0.51042410396818    1.71469699916032    1.09215477961183
O           0.69612386307605    2.61580835206414    1.35050382234962
O          -0.54561085233037    1.38790188023802   -0.32620579927451
O          -0.20469793795929    0.41879559797366    1.87205886615353
O          -1.70304662163530    2.28173502216088    1.61200286588402
O          -1.38853379931796   -2.38328271397186    0.11948030196511
H          -1.88790952723565   -3.08919804413562    0.53161500996728
O           1.21502154305603   -0.02334759565719   -1.71570719546515
H           0.57946800245927    0.62822169393129   -1.35847515790093
O          -2.70383139666217   -0.06176976927124    0.21174086547124
H          -1.91540388474378   -1.55779480260871    0.23867161675815
H          -2.01393989393887    0.50334371329405   -0.18010018950268
H          -2.98034937716908    0.42089768275822    0.99582873757538
O           1.08922174782168   -1.32109204139580    0.58057935480529
H           1.24232977211227   -0.91728818627814   -0.31394468089999
H           0.37049930639393   -0.27175703184462    1.36214284789556
H           0.33632318744572   -1.92658535555816    0.45856556449321
O          -0.87084476966669   -1.57448845965607   -2.50027484009857
H          -1.03268350527968   -2.02753589955739   -1.65668048203997
H          -1.60064026291686   -0.96178424762257   -2.61310315074245
H           0.65936851722987   -0.62461128098101   -2.24872101695121
N           2.70880823276908    1.31281784658048    0.46907356333117
H           3.58111091908077    1.82415961463193    0.49777755623183
H           2.79932859477775    0.47312419534187    1.02886427476400
H           1.55749032435805    2.12808678386551    0.98105560086899
H           2.52282192234728    1.03094601640378   -0.48890310533992
