    26
        -50.45590482  Gyration_radius:  2.44264650547 Dipole_moment: 7.050
 S          -1.71898432610357   -0.52700808486981   -0.18656617189306
O          -1.04449016988456    0.21647950665352    1.02706907304269
O          -0.57690069083506   -1.14529762757675   -0.91030563330013
O          -2.52059077347596   -1.55996540188649    0.44797497214167
O          -2.41886754000259    0.43203551427339   -0.99498252959357
O           1.16622206130292    2.32680152467806   -1.50772385902329
H           1.43005789370655    3.06121676822120   -2.06358773710322
O           1.50177211165927   -1.09175791567699    2.35980671247158
H           2.38544971673621   -1.42318619093206    2.52908157652622
O           1.71918441719568   -0.04436707392734   -0.07934080809956
H           0.90187032496291   -0.43511041138648   -0.44919945519936
H           1.77327537027660    0.83619876170926   -0.47218097114483
H           1.57052359549466   -0.54676045230192    1.54130051285709
O          -0.54723278658346    0.84203393632018   -2.80359187848481
H          -0.25745079792699   -0.06400760261659   -2.63969020522092
H          -1.37219588812135    0.89538060210696   -2.27623354639734
H           0.52204609385691    1.78879239836349   -2.05280274297484
O          -0.31991185384616    2.70435212958946    0.69219787332206
H           0.21608711529707    2.65407276035119   -0.12944587627921
H          -0.89216823247672    1.18133894214033    0.85472990077914
H           0.29606501694517    2.82046540639076    1.41858171768553
N          -0.34316176055030   -2.62782867468551    1.17615203289476
H          -0.13887819763643   -2.29482239878219    0.19776062914277
H           0.27981523529650   -2.07862713267826    1.82333107943678
H          -1.36080923954856   -2.28959865361735    1.20149215500821
H          -0.25072669573769   -3.63083064986052    1.29617315940313
