    26
        -50.45489006  Gyration_radius:  2.44079826418 Dipole_moment: 5.943
 S           0.27114742213941   -0.41859770564267    1.88069465189544
O           0.76698021416677   -0.74813801185365    0.56448580098271
O           1.29706561994497    0.49247089324259    2.57029511687361
O          -0.97686719606535    0.46521456968206    1.72492486702808
O          -0.03352900787238   -1.53113944339161    2.72129330269279
O          -1.93404175484935   -1.16742643350618   -1.46115543905753
H          -1.09003254540765   -1.46341508396713   -1.82828036004104
O           1.15220992650229    1.15543795316718   -2.02418978427414
H           0.99220118215196    1.45203461232944   -2.92230463661267
O          -2.03176544052033   -2.26066919233359    1.04811934939798
H          -2.78796399945167   -1.89510898212152    1.51261964125830
H          -2.02817311090737   -1.63789370603058   -0.61088798706438
H          -1.27865631322980   -2.16116489591546    1.65444344849589
O           0.83956097203457   -1.55241455051410   -1.90733223388955
H           1.45286259556859   -2.28158064693840   -2.00947721035663
H           0.79760611586903   -1.36602425800006   -0.94281312470217
H           1.14751786682215    0.17739942042253   -2.05164286903851
O          -1.23676160389944    1.22148470645227   -0.64637817807611
H          -1.64516114589491    0.38774299002380   -1.00978554332209
H          -1.09016388641480    0.81751117681525    0.74520841324632
H          -0.35738502095574    1.26558875597505   -1.06845545902353
N           1.57131052524436    2.28114916694101    0.74827649597757
H           1.66317300661618    1.78445131647286   -0.13320027322426
H           2.34345759735760    2.92856199390516    0.83830612157424
H           0.70644709582694    2.80715196270723    0.72415954659181
H           1.48896088522515    1.24737339208050    1.88307635266890
