    26
        -50.45514732  Gyration_radius:  2.45711051208 Dipole_moment: 5.618
 S          -1.01550436441025    1.61710019189224   -0.48319018325143
O           0.13678439105080    0.87632266712436   -0.92117604986937
O          -0.55981633692575    2.88167846377640    0.24876326311604
O          -1.96916613743285    1.95095480080720   -1.49404103118966
O          -1.73449653862318    0.78682068077693    0.61580047718390
O           2.28629541742940   -0.63921631662018    1.05189566370953
H           2.96516992826875   -1.23881309026205    1.36487781997683
O          -0.64613199785915   -2.40599487966622   -1.17264290994675
H          -1.01875001303259   -3.25036480702594   -1.43177084179455
O          -2.57061651569520   -0.64913213421387   -1.76203049107449
H          -1.28118542148732   -1.71889188504754   -1.48461312141078
H          -3.17546396932517   -0.66081648737942   -1.01558765503330
H          -2.35387902440575    0.29209478563115   -1.89145465462723
O          -0.35288845989991   -1.23518755127752    1.27620169409100
H          -1.16770683076120   -0.01139958429143    0.92498000904043
H          -0.45709583533776   -1.76790118501429    0.46400285883254
H           0.59274358184662   -0.98217134955386    1.29284070748280
O           1.81762411309497   -1.10448711361201   -1.48533832376413
H           2.21056035345253   -0.79287510698575    0.06809722830982
H           1.10701283968624   -1.76372241817649   -1.48949750815342
H           1.33940076657695   -0.26167852522485   -1.55323544906761
N           1.23226493271574    1.98662550615780    1.83290543675512
H           1.64070717205008    1.15805537257090    1.40327599854915
H           0.20184266681293    2.57423502392211    0.90547816617106
H           0.79923379280710    1.71217799262088    2.70537097144447
H           1.97306146936869    2.64658692908204    2.03008791451141
