    26
        -50.45489003  Gyration_radius:  2.44076018594 Dipole_moment: 5.980
 S          -0.93064875574306    1.33997933435143    1.06081804432371
O          -0.00069539668779    2.14897694877240    1.97669442477692
O          -0.27343414399354    1.16181675290745   -0.21320560889951
O          -1.04141555314822   -0.03038269903340    1.74847874103839
O          -2.21779367354920    1.95460522215028    1.00969559040730
O          -1.31943013451491   -1.80536733336351   -1.49804313729653
H          -0.83822920946362   -1.23381546313786   -2.11147921904403
O           2.34930784053984   -0.59357729568151   -0.94048716806948
H           2.83936891989545   -1.29174834585114   -1.37925111061641
O          -3.19320048118282   -0.18484661444964   -0.33083934546025
H          -2.93367900892637    0.67484841668251    0.04095477357072
H          -2.05806048223192   -1.26373226011948   -1.16010127485896
H          -3.60015471595853   -0.66716296373683    0.39231777598213
O           0.32471136697900   -1.74260342991934    0.53888449059693
H          -0.45465058566806   -0.75755722345011    1.27480853388275
H          -0.31593610104416   -1.93155075004006   -0.20134183037865
H           1.07844992699235   -1.30206829791790    0.10161095227514
O           0.32793298149487    0.24177202354354   -2.56945926461216
H           0.00110975835570    0.63815109174414   -1.73108951408051
H           0.27837136933035    0.93642391392271   -3.22777568845250
H           1.71431891033461   -0.24585028198725   -1.59896977956616
N           2.13778750722630    0.74363287973703    1.76018231847099
H           0.91295585908781    1.65704142480293    1.93154470911217
H           2.99838918782880    1.14140092686929    2.11322978842725
H           1.96109588765713   -0.12954284118808    2.24146865232213
H           2.25352871639127    0.54115685439206    0.77135415615472
