    26
        -50.45896426  Gyration_radius:  2.46118871552 Dipole_moment: 4.072
 S           0.82696786259898    0.32128971114606   -0.30474259543147
O          -0.57233861367559    0.42296784690209   -0.77714889508801
O           1.69698406249848    0.23351455222253   -1.59767112527367
O           1.20382796850817    1.50346589089072    0.44139180713790
O           1.02905730676559   -0.91337043242733    0.42555398200206
O          -1.58796293534266   -0.12058548848798    2.94448723456488
H          -2.01880851036751    0.68646525774064    3.23089658920270
O          -0.70900339780536   -2.85208690846844    0.06834798723983
H           0.08304851947256   -2.32947170734686    0.32881729074696
O          -0.30806161716080   -1.75896734835896   -2.34888453458127
H          -0.50323680314398   -0.89882217033347   -1.93664889345099
H           0.62497940146628   -1.72195579410570   -2.57230598832977
H          -0.69860693719743   -2.79296430193330   -0.91042426771949
O          -2.17844451216001   -0.91871948725971    0.60279043961650
H          -1.99584358358552   -0.63942171976787    1.57555088964705
H          -1.60896897193502   -0.28319376582462    0.01788083328759
H          -1.67580922075754   -1.85542059596913    0.43713173960319
O           0.96922698774068    0.41788976410828    2.85081679294122
H           1.37696760396046   -0.41861721273868    2.60497674077079
H           1.09127938109383    0.97742726209424    2.05610267187113
H          -0.60648488597245    0.06213812008364    2.96852387414687
N           1.10051423268253    2.70502649905304   -2.10728502269552
H           1.62725297185765    3.48526942676144   -2.47823340886068
H           0.14618100534812    2.77214102281150   -2.43649871337700
H           1.60052953431293    1.15082671029212   -1.99172344136475
H           1.08675314091618    2.76517487898132   -1.09170196663180
