    26
        -50.45334083  Gyration_radius:  2.59407266949 Dipole_moment: 3.799
 S          -0.66611198907892   -0.26889342039994    1.29811437705562
O          -1.25002899862698    0.85483272972412    0.62499464502651
O          -1.63203893305791   -0.78787254276514    2.37056722371517
O          -0.53008457528365   -1.46791144928286    0.36187419803884
O           0.62039082333509    0.00742403478090    1.90029699675956
O           1.48992262733745    1.68245259934149   -1.49613345485044
H           2.35916682563080    1.97551341018362   -1.77356054822222
O          -1.09381784640909   -0.58781615994864   -3.38297428552973
H          -0.95665012724766   -0.35451923307927   -4.30214854098477
O           1.02349073633157    2.47199780978769    0.96765722308818
H           1.36849604074666    2.01096449977130   -0.56555459387496
H           0.08712558479704    2.69103938871514    0.92641752021968
H           1.04707585061321    1.60986228154472    1.42635096639189
O           0.86169690330771   -0.95683099397964   -1.63366478523988
H           1.14527665905105   -0.02050136647502   -1.56339705551968
H           0.08500728946249   -1.27622362059318   -0.48517028508754
H           0.17556581208796   -0.96981500757206   -2.34674704309684
O          -1.28147928514600    1.66798481976661   -1.99296509110677
H          -0.33786957216379    1.88346647672009   -1.98663323399778
H          -1.33698125552726    0.24844740930661   -2.91644254086175
H          -1.48418489658829    1.41562124321678   -1.07787261322961
N           0.11448270391416   -2.47054075542400    3.19805965501615
H           0.81056628590365   -1.77756071771669    2.93796347861393
H           0.30112154390935   -2.80397948695677    4.13458414013593
H          -1.09667786236807   -1.53136806849241    2.82505797854554
H           0.17653965504420   -3.24577388021968    2.55132568898877
