    26
        -50.45896425  Gyration_radius:  2.46099820133 Dipole_moment: 4.068
 S           0.19967333539396    0.45890558695255    0.79492966207025
O          -0.16954359342415    1.81770172940082    1.46859448535257
O          -0.91042446405526   -0.44276702974771    1.02569033996455
O           0.33516138959002    0.75817138058828   -0.64861832569132
O           1.45406982806296   -0.01556820512320    1.34035729061318
O          -2.73529771095597   -0.65179604826270   -0.85371350184455
H          -2.24202091239894   -0.71422674062409   -0.00436882778579
O           0.49197637619183   -3.09982627523288   -1.16513891620055
H           1.36644010181159   -3.29587006465585   -1.50545735787239
O          -2.08913894271608    1.94930638439864   -0.73303671972180
H          -2.16434011949448    2.29165645531618    0.16086487015238
H          -1.15998098822098    1.67154670009118   -0.82000527813331
H          -2.83798535076120    0.31571085870299   -0.97648955404097
O           0.80201693656233   -2.58730808441811    1.38034736170509
H           1.21188267446671   -1.69866302505307    1.42283270224592
H          -0.09365634162164   -2.44055191857097    1.70083845632714
H           0.59762345129704   -2.96582655679269   -0.18122517603734
O          -0.62938664897894   -1.02662974079344   -2.12122382435224
H          -0.14589338133104   -0.27287321701242   -1.60321361032368
H          -0.21031138539213   -1.90496314935616   -1.78901767092912
H          -1.61793416571462   -0.96257982628593   -1.70103936321997
N           2.22337058963541    2.66848573339258    0.94510625800965
H           0.67479974155886    2.34983254716699    1.36946793412412
H           2.88786170766749    3.23589789679410    1.45527346746394
H           2.45155369135523    1.68614153513319    1.07959186821356
H           2.30948417146935    2.87609307399069   -0.04134659005447
