    26
        -50.45334086  Gyration_radius:  2.59300671633 Dipole_moment: 3.797
 S           0.64212435865182    0.84252331899137    1.04235914579078
O           1.63749195374368    1.40597366626899    2.06417105815858
O           1.55533773046151    0.36107353498243   -0.08345018027507
O          -0.08481873113376   -0.24740483916922    1.62580056414474
O          -0.19619196694203    1.91178495863283    0.54475614864587
O          -2.29203469583862   -0.91683462735549   -1.09322033768977
H          -2.99676597486074   -0.80156439763407   -1.73235613531912
O           0.83967619226118   -3.27297111504973   -1.24474576618471
H           0.51054428937525   -4.03903748898250   -1.71689916627738
O          -2.58978233207401    0.78831735368012    0.88519449476033
H          -2.31545931154150    0.25783346397640    1.64012016243890
H          -1.82665068282381    1.37403898656559    0.71549864833215
H          -2.45835430704134   -0.25313702328876   -0.37170789793893
O          -0.92809149191894   -2.66405989494175    0.64253733128781
H          -1.58439530247938   -2.25229570047932    0.06233269661603
H           0.26848712742703   -3.17185088417986   -0.44506091357667
H          -0.55409513886237   -1.92916950558517    1.15459827234585
O           0.29554643408936   -0.76571075592476   -1.90693413841516
H           1.03036254429010   -0.09937525903814   -0.88631894182255
H           0.60306229888402   -1.69935669564586   -1.79261159206980
H          -0.65138632612688   -0.77122345197741   -1.65141046537627
N           2.28779317326092    3.29439729435797    0.45871853570527
H           2.88586024663145    2.92919779985510   -0.27068998577052
H           1.32606981400495    3.26288174035484    0.13264197201672
H           2.04691940553170    2.20401462628081    1.57291422088690
H           2.54875069303182    4.25195493531087    0.65376224958680
