    26
        -50.45741759  Gyration_radius:  2.48312402728 Dipole_moment: 5.478
 S          -0.93479268393029    0.79187645314009    1.07640751488321
O          -0.79863480740831    0.96300286586733   -0.38313057887336
O          -2.28170236837925    0.45718918971929    1.44922388818342
O           0.04761214438803   -0.22178169718258    1.51908361939421
O          -0.53627170828518    2.11930388255895    1.74452570178805
O          -1.56703415590037   -1.28176521471383   -1.49326217588165
H          -1.38158254118942   -0.34407414877634   -1.24854051874417
O           2.20387233689162   -1.21685408639013   -1.54350268690877
H           2.07349413498612   -1.46984541790560   -2.45946689784382
O          -3.57169510410815   -1.48618641539010    0.20782094915472
H          -3.67791428090831   -2.17158764876519    0.86941503339907
H          -3.21918722322117   -0.70321911208747    0.68730438355148
H          -2.41519178878116   -1.48352559667404   -1.03145329914564
O           0.28368000783688   -2.10269216442304   -0.05638461334584
H           1.11242000456037   -1.85436678848304   -0.58207869669577
H           0.19381571823985   -1.34374454515156    0.69407137108357
H          -0.53846435431034   -1.87691518603604   -0.71616691164198
O           1.52657049010999    1.35891839481530   -1.40113293774354
H           0.62494616557628    1.23905572868901   -0.98892054561729
H           2.04605676883547   -0.24499161721370   -1.49202922667464
H           1.38194185671105    1.89235115643195   -2.18443049866201
N           2.00905374604159    1.82626275806452    1.46317323329163
H           0.48027534107496    2.12810934672861    1.67141357343129
H           1.99429332572041    0.86182977314856    1.77349501243859
H           2.21023867982861    1.83422384835210    0.46854517222972
H           2.73420029560279    2.32942626166232    1.95602015494317
