    26
        -50.45896419  Gyration_radius:  2.4614123191 Dipole_moment: 4.078
 S          -0.42767686212132   -0.19327695378725   -0.81267527069187
O          -0.72764468452828    0.53190581363927   -2.16181895782830
O          -1.38417867058542   -1.26414992212509   -0.62663215318918
O           0.94648753767299   -0.64776922046570   -0.87311619576698
O          -0.58760124156452    0.84055230318101    0.23487673895757
O           2.79549156987107    0.88734843894973    0.19013334092998
H           2.32572702357136    0.18218130798131   -0.31046347880170
O           0.97437149710795   -1.76229803823609    2.67583693678596
H           0.29337337898773   -1.98129927050375    3.31399318485771
O           1.14550575598387    0.69461117042391    2.04017623244728
H           1.97977931291394    0.80528346972030    1.36957966877513
H           0.35155080820173    0.79385410140095    1.38444278528042
H           1.12816714156387   -0.28535777245317    2.35117760091646
O           1.07929451785692    2.54077872263193   -1.04223164580446
H           0.37041262503869    2.09097577912121   -0.54902398700227
H           2.47588472916260    1.70978645216456   -0.23760353287195
H           0.94148401156001    2.29176775444507   -1.95918064944551
O           0.31424240241596   -2.98749626451233    0.46198957252452
H          -0.44201506820070   -2.48350806055865    0.09658008993319
H           1.03576844755543   -2.78538165952561   -0.14218133370065
H           0.75983926408318   -2.27898902346938    1.84869942689324
N          -3.21630354328481    0.71176492709303   -1.45661637567955
H          -1.71167222249415    0.71662062506498   -2.09955082240439
H          -3.33042910685264    1.42425107931771   -0.74743240388984
H          -4.08805917839892    0.61345711545120   -1.96077458194030
H          -3.00179943553749   -0.16561285500047   -0.98818418929448
