    26
        -50.45896416  Gyration_radius:  2.4615012487 Dipole_moment: 4.075
 S           0.64314645123477    0.55992521628127    0.38907586022576
O           1.01347830063855   -0.82353139259810    0.60698620837084
O           0.09308452618043    1.20373682200736    1.56350824822832
O           1.93735499935299    1.31448389681176   -0.04897800196455
O          -0.28731693405891    0.67493312501265   -0.75654895682305
O          -2.50145238688071   -1.92275437635996    1.12082968232589
H          -3.31681879414666   -1.47267855562497    1.34790542356563
O           0.65378489728420   -2.51829655300687   -1.36908865173298
H           0.93100320548226   -2.09754794619602   -0.52375719805695
O          -0.69081812734256   -1.02105893465421    2.77809184547261
H          -0.48499041851575   -0.11282164571328    2.47433179796819
H          -1.82287117667159   -1.62856841403117    1.79183341255739
H           0.10124261276930   -1.52053855532572    2.55541881169027
O           1.56632362042877   -0.25682282194323   -2.48789704829446
H           0.85639080384783    0.20685005935927   -2.00939028155316
H           2.38049422738611    0.04084387206642   -2.07500424549648
H           1.07116858857283   -1.94512529885651   -2.04651270898848
O          -1.57528580339481   -1.43035289657966   -1.19630896262082
H          -1.14575499435115   -0.50013244513163   -1.05369864287999
H          -0.70044258775437   -2.04033073889807   -1.33898470620514
H          -1.98615579935203   -1.68866838608744   -0.28967435749082
N           0.62589970631957    3.54718191396885    0.08949699910299
H          -0.00447610951161    3.63363482994829   -0.69712477427874
H           1.63893901744640    2.27189200289284   -0.07007642658066
H           0.86785086786321    4.47429445017600    0.41463400403381
H           0.13622130716415    3.05145275249589    0.83093266944759
