    26
        -50.45896428  Gyration_radius:  2.46124147958 Dipole_moment: 4.072
 S           0.87660479228664   -0.33318157007664   -0.03026431164331
O           1.99207116684901   -0.55983176498760   -1.09829002466656
O           1.10892238485706   -1.21635007660025    1.09327617589241
O           0.90713275260484    1.07173361998173    0.32156261649218
O          -0.39443740534894   -0.67168016211190   -0.70958396502431
O          -2.15996164579505    0.85077416519253    2.41182494985744
H          -2.62911764293729    0.13189142521593    2.83863192933481
O          -0.74837440805057    2.68805727304457   -0.92535565942319
H          -0.01930327727264    2.32405589621745   -0.37371331571445
O          -2.26846598132948    0.88857636947304   -0.12896737963427
H          -2.28525239379217    0.91829002247525    0.89889835759004
H          -1.75614220838243    1.77164196480070   -0.46813907884511
H          -1.58195555982541    0.15514868242475   -0.37633634516391
O           0.36933608879919    0.50082588014073    2.97551272950733
H           0.80678304376773    1.25814569489492    2.57360482789111
H          -1.20180184859138    0.75659441256797    2.67718605487692
H           0.65978931109586   -0.25441704540150    2.42343207014322
O           0.15554673954832    0.97385835958916   -2.78127208931056
H           1.11500976208118    0.94329587044338   -2.80047610023563
H          -0.10786196691488    0.25827248834060   -2.17589203542646
H          -0.53636392933376    2.34865067417326   -1.82056199796767
N           1.54757883670665   -3.11015400863536   -0.94911995388726
H           2.15017278137239   -3.92290451887095   -0.96112750650358
H           0.68222070239464   -3.34108463110031   -1.41970732434420
H           1.32642181912035   -2.87366687890015    0.01543604989730
H           1.99144808610568   -1.55654214226191   -1.21055867367042
