    26
        -50.45741763  Gyration_radius:  2.48314132741 Dipole_moment: 5.476
 S           0.16835537478829    1.59439085068656   -0.29600700204147
O          -0.67990117445680    0.58222192416634   -0.95472452471809
O          -0.75734837947570    2.67653603144279    0.28658408170449
O           0.85168677011398    0.95410262209435    0.84930791069023
O           1.08682385630556    2.20108722832442   -1.21988157292687
O          -0.48085268054861   -2.67184568915558    1.16200995616854
H          -0.64230688981822   -3.42615184291672    0.59194171534489
O           0.92797999114667   -1.19677985072058   -2.00947334124155
H           0.20509731609488   -0.55932814643986   -1.79833314292738
O          -2.28589533087956   -0.83736582860133    0.46142817181218
H          -1.19737328423709   -2.01963159773107    0.97962553848600
H          -1.68285577160344   -0.25517655146991   -0.08128404213219
H          -3.02732681704272   -1.04314175551934   -0.11036090319091
O           1.59608078873624   -1.34766570112258    0.37686234952318
H           1.40333278745824   -1.37508681342116   -0.68350249964148
H           1.34565725667770   -0.33790578301988    0.63189455648412
H           0.86207250479834   -1.91127319255661    0.78719316886539
O           2.57268204369088    0.70260404228921   -2.81004987286661
H           2.02373474844534    1.35678485529004   -2.32227975787702
H           3.47063753203081    0.83318102688712   -2.50116420469738
H           1.60167033454874   -0.64524800577693   -2.47353810535559
N          -1.54226796643284    1.31178252419384    2.32760964088373
H          -0.60680300716629    0.99440397161157    2.55312097254702
H          -1.98788886018341    1.67075003176871    3.16098947280708
H          -1.15581916097510    2.23144753025822    1.11226213406801
H          -2.06917199202587    0.51730809942523    1.97976931028719
