    26
        -50.45896428  Gyration_radius:  2.46119741878 Dipole_moment: 4.077
 S          -0.05754454610228    0.81605243628198    0.45913794911911
O           1.15353103223439    1.58339559661607    0.25722971069598
O          -0.95410689612707    0.83913825494255   -0.67853680365585
O           0.26224976314417   -0.57795298346021    0.84113697063388
O          -0.84304106217797    1.40931864297431    1.67044083306238
O          -2.31284829925240   -1.34436834385223   -1.21916073172773
H          -1.97965131614416   -0.41856367219361   -1.20284740873516
O           1.39461771310513   -1.05097503952730   -2.85557269374711
H           2.33752257997339   -1.22209013431186   -2.83097335737721
O          -2.31543953656746   -1.10969597284913    1.45382387327822
H          -2.61259004044302   -1.48583676333651   -0.29631685817795
H          -1.34740638171816   -1.02187768578455    1.39709813382853
H          -2.62790546628826   -0.24696679517035    1.73631195946454
O           0.01575429416604   -2.20056693138580   -1.05376646782481
H           0.21119743450596   -1.60349814750236   -0.23184301646433
H          -1.01974806765391   -1.97027545405419   -1.23295793054958
H           0.55945610232635   -1.79549490012998   -1.82696317424740
O           1.11055910689353    1.50724931427167   -2.39474427434427
H           0.16217925961011    1.65521188584797   -2.46670397777424
H           1.29135278945040    1.62335742298503   -1.43906079851229
H           1.28582238061005   -0.06463114920048   -2.74345194755047
N           1.34497142865868    1.34071730531367    3.06017744420079
H           1.55923033522941    0.38844695522306    3.32644282752643
H           1.76424827604562    1.51343384817042    2.14940580092754
H          -0.13927597719587    1.46862361038173    2.38270118875610
H           1.75686510376690    1.96784867977930    3.73899275921572
