    26
        -50.45896427  Gyration_radius:  2.4611729116 Dipole_moment: 4.071
 S           0.53640409512616    0.76516802200719    0.08125582344368
O           1.37022282908066   -0.37674103237452   -0.23378127987370
O          -0.75046456341368    0.32431169487389    0.66531208910502
O           1.25833011294671    1.55720227843601    1.21615876072267
O           0.31325949465860    1.64724707643689   -1.04498206528480
O           0.81654673987765   -2.66356940569748    0.93683030517100
H           1.25446686910769   -1.94458519537274    0.42718026109058
O          -1.14252429601016   -1.86841645957768   -2.53115654978097
H          -1.90152665756775   -1.52710847707090   -3.00695078326995
O           0.47912992157417   -0.77033316564330    2.80824538691185
H          -0.09607010407895   -0.31293935106570    2.16955736234040
H           0.74041007659036   -2.27986197548273    1.83596613607455
H           1.25420832626669   -0.20983650533897    2.89145146160495
O          -1.38930620837608   -2.00569363114678   -0.00348617038886
H          -0.49627700713049   -2.45801258198814    0.39064159242557
H          -1.24838573987612   -1.01862076489649    0.27219397352898
H          -1.31491280153341   -2.02127822487246   -1.02906654895824
O           0.79310494147769   -0.15648630259536   -2.93085177771390
H          -0.38413461371249   -1.25083890175827   -2.73315344810916
H           0.57282749478978    0.62231375000256   -2.37908503488399
H           1.54896923678360   -0.54762902642720   -2.48121275125149
N          -0.52264999781965    3.42656046217749    0.97676054357224
H          -1.39968304416559    3.12652960568718    1.38225875959607
H          -0.50677461433837    3.12436967103786    0.00536623538696
H          -0.47864260684237    4.43688546875626    1.01019239069790
H           0.69347213657638    2.38136297187099    1.30435531783644
