    26
        -50.45334081  Gyration_radius:  2.59304461569 Dipole_moment: 3.798
 S           0.35119103428247   -1.03718761610018    1.00411354384558
O          -0.24505279435295    0.25486383376691    1.55910615484982
O          -0.46395576217949   -1.57955261672831   -0.04388995237131
O           1.72459688432679   -0.79493163074730    0.61810670709625
O           0.31858454969470   -1.97132050461996    2.22010092897758
O          -3.09116987724233    1.74002056389336   -0.62183522802980
H          -3.58693110876782    2.25093346457515   -1.26314129591707
O           0.21076851717160    0.86720147982991   -2.54816720799252
H           0.68745244732338    1.38301144554305   -3.20017903153885
O          -2.18421926572702   -0.43593250709231   -1.84670004636729
H          -1.46504768002913   -0.00745347422852   -2.33264949457378
H          -1.74089600085575   -0.97673626834865   -1.17352218809504
H          -2.91676777714686    0.86200579451776   -1.03970827265780
O          -0.49155172741061    2.00894532478179   -0.18553487834510
H          -0.18194184804062    1.62653047467421   -1.03405497471040
H          -1.47712153329199    2.05367441872421   -0.26264817634438
H          -0.33221837667971    1.02712441202234    0.83205922333023
O           1.54830379047772   -1.32530356126777   -1.98837771493345
H           0.83617238545390   -1.96464669316016   -1.88516727541491
H           0.75850401141530    0.05442219792892   -2.38032309959329
H           1.82189435313934   -1.12362255717444   -1.07255608717023
N           2.06290304673176   -0.53605775402479    3.42946504858317
H           2.80451561830587   -0.80995911464230    4.06038372515554
H           1.62762894836333    0.30885677910729    3.77554967946060
H           2.45063415070271   -0.34532904825731    2.50995062242788
H           0.97372399433562   -1.52955684294110    2.86961930031538
