    26
        -50.45741767  Gyration_radius:  2.48316311132 Dipole_moment: 5.471
 S          -1.08603570052928   -1.16462091285399   -0.34796557790288
O          -1.09123510866769   -2.00976061490549   -1.51029556478769
O           0.19883115572158   -1.23766407879212    0.37433086880056
O          -1.35665390586073    0.25302063125110   -0.67299711752164
O          -2.19458735366580   -1.61927315551851    0.61724386916282
O           2.07160011807775   -0.54300405504819   -1.32054131594167
H           1.51787722201992   -0.95215239574515   -0.61378357479042
O           1.43356399004904    2.40345320454578    0.94302818036647
H           2.39066309083760    2.40170487420277    1.00641039546497
O           0.65935212854804    1.49855081019035   -1.35150805179466
H           0.92655155989238    1.97697123897458   -0.50032853096492
H           1.35002606106467    0.67450935311903   -1.43182691164824
H          -0.26209733324129    1.00647367733017   -1.11532095342864
O           0.61122936572318    0.31278714986149    2.38070085781217
H           0.42446523441283   -0.30790628980844    1.62106858717415
H           1.19983930439053   -0.16718892008396    2.96565406753838
H           1.10801021079840    1.69229115561759    1.54326375722790
O           0.90293117420868   -1.92061837999415   -3.24140219475672
H           0.14846195640915   -2.09035100378752   -2.63381006053542
H           0.51825004253927   -1.55483135120854   -4.03951145949184
H           1.85361426855445   -1.06923809074784   -2.12613945836457
N          -2.29331011685685    0.56266824552867    1.98599539984806
H          -1.40294860667810    0.66528441927773    2.46201559616823
H          -2.27962100253088    1.15283864589403    1.16252587583085
H          -2.31006469369669   -0.82194947093529    1.24149723893331
H          -3.03871305153336    0.85800530357175    2.60169609759331
