    26
        -50.45896436  Gyration_radius:  2.46107588836 Dipole_moment: 4.073
 S          -0.41960352651016   -0.80461764185364   -0.23930188278354
O          -0.99140887930531   -0.68951678054996   -1.56445393911456
O          -1.19854266992291   -0.14237464056536    0.78695472870152
O          -0.33743079015060   -2.31313030606633    0.15315138885752
O           0.97822854458450   -0.31742290814536   -0.22684469969386
O           0.09660427586709    1.02356983387714    2.75391771587810
H          -0.60514014245684    0.63393856422608    2.18451639762083
O          -0.54104796056024    3.25087166104422   -0.58466017316794
H          -0.25562163338614    3.58264487209398   -1.43757313293496
O          -2.41539187586424    1.49649708790347   -1.08116848477534
H          -1.30019283235065    2.62794699697734   -0.76616612226561
H          -1.95156971643661    0.71010783579946   -1.43609562273274
H          -2.70953763344718    1.21331618496301   -0.20953120181301
O           1.39720596640869   -1.27226977386061    2.26624502937265
H           1.42846176210171   -0.99768770487646    1.33264332194005
H           0.68596393999641    0.25970589293552    2.92905217280782
H           0.80481306039791   -2.02762427346067    2.28412569621116
O           1.21294709081431    1.97999836751893    0.74851933200584
H           0.52563647491336    2.55682252307078    0.24603833641991
H           0.78038931429025    1.71720252458203    1.69791662548402
H           1.21086565036488    1.06273737128798    0.27028235435645
N           0.80103159520093   -2.79263053903000   -2.12667847278958
H           1.75790817394473   -2.46419212631723   -2.11413820078246
H           0.20886893819083   -2.02143348247107   -2.42630415959206
H           0.72598407443284   -3.54751639722915   -2.79625096606078
H           0.11057879893501   -2.72494313180889   -0.64419606115095
