    26
        -50.45896429  Gyration_radius:  2.46119713268 Dipole_moment: 4.071
 S          -0.48656825049818   -0.24412526962792   -0.76445524817214
O          -1.75544245687377   -1.08570964280333   -1.10795800446076
O           0.35861618991213   -0.15984183487308   -1.93696718503894
O          -0.94921030462126    1.04409859563251   -0.29017286263857
O           0.19515142924946   -0.98387215556116    0.32159935608948
O          -1.18536069779603    1.38651037779629    2.30483016267556
H          -1.23668233971574    1.49858067936279    1.32850805004476
O           2.45883453087279    2.16595182182377    0.68659643482080
H           3.34690611020171    1.89320044794661    0.44995235271106
O           1.13411363096119    2.34928571974828   -1.56047222860414
H           0.96804582217862    1.42662367322993   -1.84441160532610
H           0.26466220000462    2.66591639696490   -1.29544740471319
H           1.96808143379849    2.29829535452187   -0.17296711334297
O           1.13429569867561    0.51544530501703    2.09758633715546
H           1.69253936055255    1.21529047616806    1.59153053286739
H           0.18906020033765    0.97001034193027    2.33761748859268
H           0.84450411834785   -0.17827177719430    1.38691299258911
O          -2.06339984419545   -1.09807855040701    1.80067599214671
H          -1.66999830056553    0.54740208757843    2.45501991616998
H          -2.73883240878208   -1.10460044489499    1.11834752593802
H          -1.22521058507412   -1.24412152108424    1.32745427193492
N          -0.21126203713922   -2.91657558871427   -2.10153776891037
H           0.24866207064057   -3.42555145364302   -1.35786907675474
H          -1.36730501149364   -1.90863868740011   -1.53008127124922
H           0.36409926511742   -2.10958631318920   -2.33155064562185
H          -0.27829981408426   -3.51763803834479   -2.91274100889595
