    26
        -50.45896428  Gyration_radius:  2.46124703334 Dipole_moment: 4.070
 S          -0.67149402871711   -0.27903138613405    0.59322614286080
O           0.75338331852692   -0.62488416993079    0.38919918097077
O          -1.36808633409961   -1.61315096357737    1.00704568758216
O          -0.81740767343945    0.68439074856448    1.66411642752108
O          -1.27583949138861    0.14459560241190   -0.65330866092127
O           1.12704293851280    2.94144649859902   -1.13416711299889
H           1.71397474283168    3.42786035557852   -0.55290715465800
O          -0.07036560652498   -0.51949330214366   -2.89206325435389
H          -0.72521775886542   -0.20167714036913   -2.22982866397735
O           0.12759580725150   -2.65542423477131   -1.28035092023127
H          -0.72880719806764   -2.92536168547574   -0.94048717526136
H           0.05546897880066   -1.45938470405912   -2.64230220741392
H           0.48725584860183   -2.05077134061199   -0.60732891869232
O          -1.17040103754839    2.80329199288729    0.10708430607941
H           0.23162086230940    2.94131686644025   -0.69204118500122
H          -1.74803083172962    2.35234997235052   -0.51695435195691
H          -1.04429393947428    2.14623226886360    0.82253106249090
O           1.77370579174266    0.52436587571042   -1.59131872321268
H           1.55171301267839    1.52088430253580   -1.46811663505909
H           1.46529402369417    0.05941234065038   -0.72021277737849
H           1.06904123643545    0.12282034575726   -2.29845939530905
N          -0.09171796839098   -1.52239416790377    3.26240391271256
H          -0.18809657909567   -0.52006987203859    3.11665568476469
H           0.88037470757422   -1.76561063171727    3.12279576034008
H          -0.34801604871351   -1.74471040628007    4.21567433680953
H          -0.98869676295604   -1.78700313537886    1.91911464426887
