    26
        -50.45896433  Gyration_radius:  2.46105786902 Dipole_moment: 4.073
 S           0.62294622367567    0.47014420851512    0.52212306953371
O           1.52636016867027    0.20065745852645    1.76619465674136
O           0.65140441595698   -0.78329891944621   -0.26500321676110
O          -0.71320875557953    0.72931317539618    1.01820022486765
O           1.18040091972676    1.56750382997719   -0.24029467970567
O          -2.40443418052408   -1.27996293243633    1.10382401451776
H          -1.96875472845156   -0.40553946408266    1.22322975067879
O          -2.21043946198787    0.79205128829957   -2.38606373404528
H          -1.85769675985145    0.91513037781007   -3.26887720053038
O          -0.03573963008224   -2.26916730909338    1.88489275737618
H           0.34460594897122   -1.75606967186982    2.60176459130125
H          -1.77669226062950   -1.89800210077838    1.53439078882951
H           0.33696523753333   -1.88323220350712    1.07236061236976
O          -1.57823755169927   -1.38809554277368   -1.23877612554407
H          -2.08311864401386   -1.42024635878995   -0.28898664610578
H          -1.89655175125673   -0.54140342496191   -1.72804467203164
H          -0.60808732501630   -1.18995022797530   -0.93961505871249
O          -1.13958767183744    2.66666435671597   -0.91085068134196
H          -0.20874751234612    2.39428570774267   -0.77354899806498
H          -1.85350651068883    1.54410745367152   -1.83443393869903
H          -1.54277517639911    2.54397426309761   -0.04547687716873
N           3.59090522823123    0.17112143536471    0.19754483565123
H           2.44362908642175    0.14215665637959    1.36469548004775
H           3.61024339202335   -0.68896714636038   -0.33492701060532
H           3.03335535524243    0.84715731343695   -0.31945824047600
H           4.53676196392117    0.51966776718153    0.28513627784424
