    26
        -50.45741770  Gyration_radius:  2.48317482792 Dipole_moment: 5.472
 S          -0.26510030155067    1.43410629286449    0.72763575312677
O          -0.37934191397663    0.16458848829849    1.47840228225981
O          -1.49088316150424    2.18423668539088    0.71880743517769
O           0.83345632150502    2.26159959711966    1.41735520004904
O           0.19510303433157    1.12440908250285   -0.63995926206286
O           0.91575938850545   -2.69179083290335   -0.79813064706957
H           0.80108676560997   -2.99345720727535   -1.70137014210138
O          -1.73136450399815   -0.20717328203033   -1.81387096442534
H          -0.98282996661991    0.38835723397925   -1.57194790204434
O          -3.54020505248089    1.38654729967580   -0.74579263881547
H          -2.82570565300924    1.81504517462965   -0.22316818541185
H          -2.53478119695192    0.32528779126150   -1.60292687097182
H          -4.20955953986430    1.12824625363327   -0.11015037270716
O          -1.28041868047808   -1.68900778236112    0.12625319171100
H          -0.44670631906960   -2.18979404826413   -0.15467518738494
H          -0.93255686101851   -0.91813036944590    0.78328077407651
H          -1.57538063571661   -1.13353983402011   -0.74958023326867
O           2.24610258825699   -0.38648513026971   -0.97065710304489
H           2.65722199310827   -0.09496825715324   -1.78611363281033
H           1.47142562751736    0.22719037719240   -0.82728046458043
H           1.48534318815817   -1.88799362333583   -0.83743595372131
N           2.42464224920734    0.28879744992224    1.88685341626860
H           1.55054277278698    1.57142645297747    1.63682423221218
H           2.73586608877603   -0.07195087117734    0.99086764740881
H           3.19609312885861    0.27552868776703    2.54003571682206
H           1.68219063963381   -0.31107559897148    2.22674390126866
