    26
        -50.44975143  Gyration_radius:  2.48627847809 Dipole_moment: 3.515
 S          -0.30980451971683   -0.07324215326547   -1.42418140119200
O           0.53850600739266    1.06519536806495   -1.25519545870845
O          -1.16733964678505    0.07186765178416   -2.69103856410150
O           0.35459191991999   -1.35040198221803   -1.46036128917255
O          -1.37743841083107   -0.09765474343202   -0.31245202824258
O           1.87158728039662    1.66843558130702    1.45493465086462
H           2.53319444920318    1.67174819111579    2.14961932177241
O           0.54529605264518   -1.98034814369658    2.23348746163790
H           0.62744340833749   -2.61638324999013    2.94517849830970
O           2.32568647414664   -0.76858295190803    0.40725607429110
H           2.11902801326750    0.93665316496153    0.84878866761732
H           1.87996215250671   -1.28088424096805    1.09898180689197
H           1.83659714150529   -0.94825204651022   -0.40639525768564
O          -0.46095241544824    0.52671050690495    1.91115949586135
H           0.33906676590281    1.09010597743128    1.74634109248433
H          -1.00585374633751    0.22140568058334    0.63587864444061
H          -0.11198511941067   -0.33837541959400    2.20357665430642
O          -0.98193692410116   -2.87937179000167    0.27513452288119
H          -0.45216294007786   -2.51837214451933   -0.46268410569879
H          -0.02065076065498   -2.40506273773135    1.53820776129148
H          -1.78281544353628   -2.34743701202008    0.28393101669310
N          -1.51765554493436    2.58938402541925   -2.35618492420297
H          -0.64302507667939    2.55919257664161   -1.83578369671288
H          -1.43595391236937    1.06320161491235   -2.70136744771028
H          -2.26145355318955    2.86686540979280   -1.72972661507460
H          -1.44193165116959    3.27360285688190   -3.09710485084395
