    26
        -50.45469735  Gyration_radius:  2.51037180221 Dipole_moment: 5.581
 S          -2.00263405669635    0.72391305641303    0.60187006448403
O          -1.89858453887229   -0.19524119536946   -0.63635970517940
O          -0.65610218988367    1.07070950285518    1.02376470904394
O          -2.84603166497323    1.81869872324785    0.27592565108333
O          -2.63688738168613   -0.16037372367343    1.67896020067635
O           1.45100255991574   -0.51976066962243    1.34402937103177
H           0.77223312768179    0.18134179553226    1.39023746885327
O           1.13129153682547    0.67297072817011   -2.39141600284158
H           1.14169864056558    0.82940131267897   -3.33671529235622
O           3.15389400562163    0.59659670816887   -0.47735097114444
H           3.92148815659028    0.19568897220076   -0.88690154153857
H           2.49288524461965    0.72277079805513   -1.17957066527736
H           2.21560009248353   -0.09839688012508    0.91068277290372
O           0.29458569331599   -1.43519053403257   -0.85049188458114
H          -1.02819887652030   -0.74198784464607   -0.69701848949728
H           0.66441602992434   -0.85427417546188   -1.53920641454803
H           0.79260595147582   -1.20212750114438   -0.02418541512359
O          -0.49290777903175    2.44848273073429   -1.25478303537048
H          -0.35533036663863    2.17705336498722   -0.33187643702897
H           0.51479719329684    1.34495797772066   -2.01079297929009
H          -1.44859737266386    2.52860207383097   -1.33343691762064
N          -0.98134482791057   -2.09461741807267    1.95891330455565
H          -0.05442068221618   -1.70080321574670    2.09133765657783
H          -0.97648411227409   -2.62206565123046    1.09419808026101
H          -1.18363416265367   -2.72202322018305    2.72604647466523
H          -1.98534023031205   -0.96432573531318    1.85413999727545
