    26
        -50.45334076  Gyration_radius:  2.59408951508 Dipole_moment: 3.795
 S           0.88659945741382   -0.80861865498888   -0.87234506148124
O           1.97219608871565   -0.33551263052697   -0.04075014245422
O          -0.06714013151640   -1.62569149261174   -0.17991455174664
O           0.21209291002433    0.38864797309423   -1.53892228373957
O           1.45733895084511   -1.58128024879033   -2.06803229322767
O          -3.45441585603732    0.95275254262523   -0.37484921223522
H          -4.23391003398935    1.26997137552605    0.08327198814424
O          -0.81533871189691    0.59002526580630    2.50624355268626
H          -0.70260147922251    1.11694097347607    3.29874852901362
O          -2.48589989606777   -1.10348511675262    0.99989206041037
H          -2.08033218557026   -0.59056572290070    1.71354292521705
H          -3.21588491226746    0.09079605339252    0.04494637888234
H          -1.73765439040055   -1.45202844856941    0.48918086956561
O           1.11220243686246   -1.18915291486789    2.33371862212421
H          -0.06552049699140   -0.06297536488391    2.49627799730858
H           0.64225568170251   -1.94865606326616    1.97482025862623
H           1.60403513118388   -0.83014033450038    1.56979664583768
O          -0.99600111839647    1.82336849683822    0.09269734702303
H          -0.28795576376403    1.02974598879649   -0.85200162504453
H          -1.93529601250305    1.64415713386357   -0.16237108671023
H          -0.88603530260759    1.41881782482112    0.97944138509359
N           3.10899466056484    0.31363645377308   -2.56507479955691
H           4.05448328125705    0.27317294977529   -2.92218038231827
H           2.16163308698531   -0.94129153165941   -2.44283992179986
H           3.13017949127124    0.47213706695273   -1.56170750105885
H           2.62197509438095    1.08522843559990   -3.00158970854511
