    26
        -50.45469735  Gyration_radius:  2.51017429454 Dipole_moment: 5.581
 S           0.09853815591153   -0.12501821489383    2.20735867609641
O           1.34912499806260    0.36925428080776    1.44524854017390
O          -0.87184288219145   -0.59197213279249    1.23183528678789
O           0.51218520990375   -1.08314495413364    3.17018061982394
O          -0.45662069443843    1.13234925084290    2.88207249434055
O          -1.67846727671424    0.58379952272975   -1.01347836950026
H          -1.58943279933131    0.06922190915593   -0.18789584505993
O           1.59075626386175   -1.52003285967069   -1.61330831233423
H           2.41247779946140   -1.93067943027440   -1.88603415911799
O           0.92276652901404    1.05516086784230   -0.95107839278569
H          -0.05984451424929    0.97080243273837   -1.06224113538088
H           1.16824224449995    0.70011629636435    0.48725541173870
H           1.29097284530233    0.24472640432774   -1.34639282905010
O           0.85788942698884   -2.55893835160594    0.72470507866974
H           1.28514392005059   -2.47223347119150    1.58249534611742
H           0.02350206486832   -2.07155425953211    0.82773256938912
H           1.35854798275219   -1.92677310433162   -0.74316458486235
O          -0.90605436319558   -1.30516871432930   -2.82988222866351
H          -0.75851196418926   -1.18953268255753   -3.76934052321194
H          -0.03991106944994   -1.49220466399198   -2.42900551889079
H          -1.66322071898411   -0.08201819319722   -1.72513199261807
N          -0.98935336737725    2.70743823572459    0.93385959814249
H          -0.11217994819184    2.95931460241375    0.49439568800994
H          -1.54433905299669    2.19471059103023    0.25495985478766
H          -0.71702911976593    1.81041355976519    2.12444217708121
H          -1.48333968972956    3.55196311855176    1.19041256038434
