    26
        -50.45469729  Gyration_radius:  2.51013577523 Dipole_moment: 5.581
 S          -1.74241481468303    1.15152937985132    0.73064788466999
O          -0.34268780075070    1.79911956563668    0.83045262861455
O          -2.43822966839309    1.92226513099461   -0.39471253847618
O          -1.57466253776722   -0.22888331758666    0.30919002672602
O          -2.41075250524921    1.33923947556136    1.96930715343017
O          -0.06760649002469   -1.20072982748406   -1.65491551687853
H          -0.75208180708034   -1.01749236218745   -0.98241166676088
O           2.01222387424240   -0.79907981218018    1.66056718649434
H           2.64953858031403   -0.69387242137981    2.36835026341947
O          -0.43646032870534   -0.62545570598882    2.68933341574065
H          -0.93274702619571   -0.78395201014119    1.86902752112296
H           1.12175950884712   -0.72180662482103    2.08176060019261
H          -0.87348724772328    0.13699813033481    3.08127615100593
O           1.59001983705632   -2.82077191432300   -0.20864740194947
H           2.44882277680852   -3.16056155184477   -0.46321366079512
H           1.73851470709718   -2.19751588841943    0.52305568300790
H           0.42653343753007   -1.96501778621438   -1.30617365795147
O           1.43965263958088    0.68354264085405   -0.57390707951977
H           1.86154006968439    0.21353903610388    0.16750674217159
H           0.95350614297650   -0.01896028640216   -1.07924306267495
H           0.37163249322532    1.38052806267627    0.21831389176701
N          -0.95846927772219    1.51209903386511   -2.44509773848401
H          -0.06556155052049    1.95849605898110   -2.27353958509118
H          -1.33494079247489    1.85442776523902   -3.31923498981853
H          -0.79877679457601    0.51211534953279   -2.52461942014129
H          -1.88486544558396    1.77019986945724   -1.27307283981585
