    26
        -50.45469722  Gyration_radius:  2.50994400498 Dipole_moment: 5.578
 S          -1.58004628456493    0.79663161469997    1.32852390905337
O          -0.89344634475847    1.76881478351958    0.34237526128901
O          -1.64038841027120    1.42152659770898    2.60208556331513
O          -2.98129554524343    0.59194427435860    0.74630864103682
O          -0.87168350110923   -0.47127003922090    1.28275750769130
O           2.58528122524690    0.85948698035726    0.14130110046019
H           3.27994053518818    1.51448339156011    0.22272040146905
O          -0.07849106866954   -1.86378950198421   -0.83988661642799
H          -0.38742720947304   -1.55372160837727    0.03346833172641
O           2.61877808038373   -1.87191159315180   -0.40512531084211
H           0.84736429174311   -2.13209307677694   -0.69598028745207
H           3.31943444351906   -2.03080154966902   -1.03876383312083
H           2.68720953871782   -0.93980305001363   -0.13615684964858
O           0.40846818878854    0.64656530787125   -1.51248702530752
H           1.28491174356500    0.80204468785270   -1.11721311493033
H           0.23798502746997   -0.32277014394098   -1.38418142939575
H          -0.40876050702271    1.31491083048781   -0.44428803688999
O           1.16933634508669    0.83858240718991    2.39461090042025
H           2.08212775717239    0.88862419631449    0.99131970935319
H           0.59837231380480    1.52531129500335    2.75283472334010
H           0.55554301773031    0.12404852152286    2.15576034310763
N          -2.55850490049996   -0.41665714928849   -1.56963190428162
H          -3.38746613838211   -0.73174432113812   -2.05604744397833
H          -1.92175580227212   -1.20074746830245   -1.46212250817953
H          -2.09487664016638    0.28781010513277   -2.13070294402151
H          -2.87061014602728    0.15452449833037   -0.20147909779033
