    26
        -50.45183048  Gyration_radius:  2.44943372377 Dipole_moment: 5.231
 S          -0.09664819164999    1.42276139621590    0.74610807428136
O           0.18269383913477    1.62403938096098   -0.74885068750877
O           1.30615413879656    1.30735731014737    1.37373876536177
O          -0.77312462599949    2.56064767271500    1.27937699810130
O          -0.78020614567312    0.16348838759963    0.93012511052210
O          -2.74570451865794   -0.27996577183144   -1.60457064150582
H          -3.11095598947016    0.16262607905795   -2.37309512899016
O           1.21817039373338   -2.35597634251287   -0.21919120826099
H           0.94855671000983   -3.26849597083086   -0.33468593472856
O          -3.12980881590296    1.60724365945155    0.31401909480581
H          -3.39254066218471    1.08112118787971    1.07313667979748
H          -2.34608643150973    2.10194777917831    0.60721289108702
H          -2.84155098353334    0.35584735085599   -0.86300478249876
O           0.72927695756690   -1.52137627458008    2.24888241635630
H           1.36874007589115   -0.91832961103422    2.63460127119878
H           0.02863556693029   -0.94450544508451    1.87343439328038
H           1.04399083035527   -2.13466190599982    0.72890103954049
O          -0.13155504508947   -0.58642395199481   -1.84896861987781
H           0.06704069048463    0.70530965016866   -1.25169484748925
H           0.23284266363837   -1.25501650941548   -1.23637640250923
H          -1.11756874675639   -0.62213225731893   -1.76456080142304
N           2.73016655396912    0.11619588532984   -0.36476647492377
H           3.72868124208093    0.12105304394958   -0.20470973063089
H           2.52847689316591    0.59107803771915   -1.23562803606801
H           2.40700307570327   -0.84546821655005   -0.44047336186490
H           1.94532051410055    0.81163543467330    0.68103995316572
