    26
        -50.45469729  Gyration_radius:  2.51010958039 Dipole_moment: 5.576
 S           0.43784636377016   -2.06508833312133    0.66322149749909
O          -0.04083325816518   -2.95154748539501    1.66380118179869
O           1.57893323282207   -2.69938611478518   -0.13694902189847
O          -0.68646364262849   -1.85227892892505   -0.37578191262846
O           0.87337710968546   -0.76124450158634    1.13380275841919
O           1.44937577261589    1.41601703675746   -0.28066359032314
H           1.39111699437644    0.69740367872516    0.37855384330415
O          -2.40613430412075    1.19800290172905    0.47226301419552
H          -3.36232567577421    1.23735791242523    0.52107664031274
O          -1.53612487027985   -0.56797460585980    2.26310484147367
H          -2.12618441418650    0.53004732161742    1.14453182832055
H          -1.66093244734715   -1.52195075598742    2.27779904567557
H          -0.58399697164996   -0.45827083026048    2.10259689557510
O          -0.67113505662343    0.41243931324608   -1.50011973225458
H          -0.64971999863974   -0.95183371656609   -0.87396072137628
H          -1.40591589904710    0.78065181988096   -0.97747536861427
H           0.14249731313568    0.85877269507289   -1.14806417087772
O          -0.41895498033300    3.13314512756744    0.73215851386019
H          -1.15624715789258    2.49899261155654    0.73901279812421
H           1.00111316903960    2.17417751948370    0.13666359815240
H          -0.75068818397746    3.94118835016033    0.33867512014493
N           2.14079234032174   -0.95146669116130   -1.92321290935250
H           1.34097643569020   -0.87570641697101   -2.54011948638762
H           2.96396807834995   -1.15352669608821   -2.47511134363705
H           2.26609648318006   -0.05569063211636   -1.46098093088542
H           1.86956356771176   -2.01223056944218   -0.87482237854715
