    26
        -50.45469728  Gyration_radius:  2.51024310776 Dipole_moment: 5.583
 S          -0.43942470714781    1.04218337489503    1.90154348192429
O          -0.66118872719814    1.38882675147922    0.50799096926684
O          -1.55993786619387    1.19788050837311    2.75966611454989
O           0.01995433786769   -0.43230626351984    1.96486751467695
O           0.76427501087546    1.83720520616521    2.41471372482718
O           0.89760874541759    0.91507902259775   -1.59399913330852
H           0.26628055193972    1.26966956576757   -0.93815645505882
O          -1.44583498103983   -2.15605021788746   -0.84377107917033
H          -1.90087221394379   -2.99286035348418   -0.73925866594036
O          -2.71273194526166   -0.31412996171863    0.60053874626289
H          -2.79092219259461   -0.24616578963295    1.55723779842988
H          -2.15768507246299    0.44515856757035    0.35599871046353
H          -1.94169585875202   -1.50520393732434   -0.28974304717400
O           1.07012882612870   -1.30302466635370   -0.16441707846969
H           0.28698850190299   -1.80200474480856   -0.45814230520434
H           1.10933123642741   -0.51216990323008   -0.76270066639863
H           0.49645759328619   -0.77292626691115    1.11828650774365
O          -0.79443380495355   -0.63019578058099   -3.08180775058717
H           0.33975487184166    0.55535060617891   -2.30762842275365
H          -0.57142366602443   -1.23737852247992   -3.78844905969429
H          -1.12787839461806   -1.16731296312929   -2.34279151800387
N           2.64361939476195    1.26643350437672    0.77118091450919
H           2.29324079370869    1.40790291329054   -0.17173623770680
H           2.85887662710339    0.28269995451192    0.88048624551846
H           3.49201727724534    1.80418261945446    0.88995871657873
H           1.56549563164983    1.65915679644942    1.76013196473169
