    26
        -50.45469731  Gyration_radius:  2.51001473066 Dipole_moment: 5.579
 S          -0.18209885989906    2.08025323336474    0.73065070529837
O           0.49847420304341    1.48734414767722   -0.40803048213486
O           0.86035732240208    2.40902138069856    1.80286727654533
O          -0.99388331951901    3.20900766691129    0.44237486592649
O          -1.07098909149746    0.99543396247820    1.38005310395308
O          -2.07144246281177   -1.30050163308404   -1.20979747367206
H          -2.98475472719042   -1.56858922793667   -1.32013562711062
O           1.78103943741925   -0.83750606540989   -0.55785170606001
H           1.45897332231071    0.07962425293511   -0.65558127761181
O          -1.91380080652115    1.33615066677675   -1.53762005836124
H          -2.27218848266926    2.03545806993314   -0.98215364861202
H          -0.95173169276629    1.42223725473845   -1.43111989477980
H          -2.05839716580176   -0.32005011085773   -1.33177024539164
O          -0.34387299136381   -1.38189341239561    0.91831849708097
H          -0.74581372776594    0.02874743806592    1.23880606615199
H          -1.02566041034198   -1.55856153541119    0.24565378213773
H           0.50186964380522   -1.28761626844786    0.40740018813674
O           0.28389643371770   -2.06738609771596   -2.48412779173030
H          -0.58246724885975   -1.78548869209480   -2.14377621527722
H           1.48569369387683   -1.29316038349590   -1.36720648024997
H           0.21841338781480   -3.00493410076708   -2.66897820119865
N           2.06858378542709    0.18678820271096    2.20722960657716
H           1.40087773364606   -0.45567284300666    2.61637398749202
H           2.35219350571446   -0.18742415446398    1.30649307031603
H           1.40670368550267    1.53375015354497    1.99368393455575
H           2.88002482233621    0.24496808527283    2.80824399799693
