    26
        -50.45334070  Gyration_radius:  2.59265571783 Dipole_moment: 3.795
 S           0.47580251493583   -1.11392819657791   -0.86221288875484
O           1.31975807424173   -0.94658922809280    0.28517871330021
O          -0.79587524862833   -1.74078828418101   -0.57309590584289
O           0.22537377166407    0.21841602006862   -1.56599496426646
O           1.21468991715313   -1.92565598998416   -1.93342287763678
O          -0.99843808579034    0.75965372560928    2.39064968412571
H          -1.76420020962231    0.92243393737266    2.94342472168257
O           1.29279498317407    3.32185320779299    0.50236772391348
H           1.29430086663752    4.08139274819790    1.08649190528928
O          -0.85872165000215    1.88806602277792   -0.07657973998907
H          -0.26364500862552    0.93668248911177   -0.95164693022744
H          -0.97083207465872    1.46923737497777    0.80321237781727
H          -0.12172614263875    2.53898742118319    0.03532416219902
O          -0.64753940866705   -1.82785897127407    2.08730317892218
H          -0.91383792968590   -0.22822738727978    2.31518493776052
H          -0.87521860394608   -1.91634204964229    1.14148849989761
H           0.31248383380057   -1.89595177643264    2.10507639273614
O           1.75745153837306    1.16363651537775    1.98013512482307
H           0.87434792617875    1.09446649657596    2.37033539190109
H           1.81928764156372    0.41000593699454    1.37153564102958
H           1.63986181369598    2.56295787253883    1.03113516957923
N          -0.88135902742261   -1.97514668999978   -3.40651858400012
H          -1.22306758321677   -2.69728497497414   -4.02689773080358
H           0.51020609385464   -2.03678206795905   -2.66645931573944
H          -1.00914752257847   -1.07282816307208   -3.84533659355423
H          -1.41275044978779   -1.99040599910446   -2.54067808418217
