    26
        -50.45334084  Gyration_radius:  2.59305426509 Dipole_moment: 3.798
 S           0.84127628846873    0.87088031101804    0.86139530568482
O           0.02647808618502    1.58379641234036   -0.21607626958425
O           0.01711198216425   -0.00181322972697    1.64626477409726
O           1.97189737373624    0.21497673885018    0.24085696278393
O           1.33743729922068    2.03294417995746    1.73088717756032
O          -3.52144847233810    0.10000120282202   -0.74429703010049
H          -4.26776893043145   -0.40464031392830   -1.07058899880897
O          -0.59042474297494   -2.50396624683757   -0.82020531164379
H          -0.43165991757870   -3.22190291222899   -1.43482900742900
O          -2.29978099965969   -1.36449267770201    1.10503028501559
H          -3.19118095158507   -0.37653514232205    0.05562518055940
H          -1.85523017376597   -1.97436494032801    0.49894949784968
H          -1.58727885298860   -0.81813566770155    1.47380820393331
O           1.41243703441440   -2.31433847463970    0.87176004963174
H           1.80215860623486   -1.46961513626265    0.57387528194063
H           0.95505155625205   -2.08726765235921    1.68771083579014
H           0.19214602274289   -2.48327383624092   -0.20707023366930
O          -1.08160033066292   -0.00746022750974   -1.77228804468555
H          -0.85990159422424   -0.91498335024670   -1.47346210611924
H          -2.03064592288309    0.12482859490034   -1.52511226783891
H          -0.43276611070199    0.91909705547051   -0.90847392414543
N           2.80016971955863    2.90266715235600   -0.18500379276743
H           1.95623907742125    2.54706242840143    1.09949938873395
H           2.21867847344091    3.36041605750097   -0.87456109665053
H           3.70388837796770    3.35619330560466   -0.15869591440399
H           2.91471711205210    1.92992636875263   -0.45499892575514
