    26
        -50.45469721  Gyration_radius:  2.50991723981 Dipole_moment: 5.576
 S          -1.78297485467817   -1.17397046182697    0.57861736556819
O          -0.83551992137001   -1.76134145377991   -0.49194443000441
O          -3.11894256030028   -1.31685929192096    0.11922512387492
O          -1.53124394231912   -2.03286553513865    1.82094216657357
O          -1.35770212886792    0.18582346210999    0.86389163458818
O           0.34513473578164    0.96514518021733   -2.52929216870780
H           0.32653204377464    0.92091801253687   -3.48632744604335
O           1.09439873357590    1.10208817449491    1.33219026279632
H           0.13329441801253    0.93044679399805    1.29633906212203
O           1.32872210847363    2.86397058299114   -0.74337952769907
H           0.93358121814818    2.28758018812761   -1.41970689449829
H           1.22479124755083    1.90319087047704    0.79278519574119
H           2.12759629573677    3.23172825766123   -1.12345278268327
O           1.43723980289597   -0.65961525286862   -0.60959122958544
H           1.24422666620646   -0.13291554826365   -1.40581718339666
H           1.43506491550481   -0.00566269931730    0.13701378230021
H           0.10874663454086   -1.35084933460511   -0.50509779700118
O          -2.14762381463826    0.75675843894166   -1.62025010295403
H          -1.94890467515327    0.85310766417243   -0.67399939305710
H          -0.59383157316949    0.87774471711833   -2.23407764903738
H          -2.74047129372628   -0.00030186269804   -1.65704339168864
N           0.95335238679544   -1.68187103524233    2.33522063317328
H           1.13544241035287   -0.68264533006963    2.34993545480168
H           1.27082932405576   -2.08577582252806    3.20651172159357
H          -0.52580332131682   -1.90878713119356    2.09486361098529
H           1.48406515424755   -2.08504153332137    1.57244399217824
