    26
        -50.45649610  Gyration_radius:  2.47944737329 Dipole_moment: 4.758
 S          -0.85123377630514   -1.20976133250093    1.08245814108356
O          -0.88222144289182   -1.89722732017160    2.33472592724704
O          -0.95205410673934    0.25955536809492    1.27569652931629
O           0.37755151201277   -1.49083422767168    0.32063649931562
O          -2.06506253421079   -1.61200990808166    0.18941963488537
O          -0.82849387382947    0.95217818977064   -2.46189745428358
H          -1.08033803502460    1.48211902371683   -3.21903761075597
O           2.87340020806743    1.67894709054373    0.86979705439919
H           3.79117560317312    1.48748622904878    0.66915484267445
O          -2.62376075151205    1.15259128900093   -0.54877446337467
H          -1.51800927050430    1.10928605772264   -1.76420278287342
H          -3.24580603654593    0.42074799055156   -0.57399416261198
H          -2.02826225723646    0.94655258197849    0.20622123217437
O          -0.85311877826033   -1.75822454422923   -2.07751175482046
H          -0.06544471037420   -1.89478883566233   -1.53007834514077
H          -1.72127962312705   -1.73175763134630   -0.74777211406440
H          -0.80889018546283   -0.83202066614670   -2.38521640244114
O           1.51567982011712    0.51460552818931   -1.02545190328963
H           0.79194544273728    0.86643877992416   -1.56510918380786
H           2.35551047291914    1.39004437072095    0.06958767889338
H           1.12602711794125   -0.24180232215813   -0.53954541519227
N           1.37001119271457    0.08655683082341    2.32034564011902
H           2.06428800478866    0.76513249210427    1.87626332272083
H           1.44209692064416   -0.83792022393863    1.87368003293655
H           1.44424203366818    0.01892059464827    3.33057960149890
H           0.37204704327279    0.37518457509024    2.02002544538118
