    26
        -50.45469736  Gyration_radius:  2.51024573351 Dipole_moment: 5.579
 S           2.02135729946551   -0.79460764857285   -0.42309080086418
O           0.92284505462164   -1.27093534449328    0.40016504626199
O           1.68332833267070    0.63703772994665   -0.89739666714850
O           3.29438981575040   -0.76797776812646    0.20527836068352
O           2.05821761715624   -1.62250989776530   -1.71067379554546
O          -1.69124650140965   -1.14842328673899   -0.07437362975850
H          -0.78545370767062   -1.37999188919272    0.20891409038931
O          -0.40155694453972    2.16243376801774    1.61559779696857
H          -0.21886278626228    3.03871390678719    1.95756986540435
O          -0.78461583904852    1.18758938914046   -0.91857952056291
H          -1.23060034449559    0.33691865967846   -0.66847783917574
H          -0.76968561409832    1.71404821979432   -0.09933788596826
H           0.67699093657932    0.84556303504162   -0.95845968841218
O           1.67565759564955    0.58922756697494    2.15828611120438
H           2.57087975541911    0.62992609603654    1.80789049320448
H           0.39240692856422    1.61501798668438    1.83072749409383
H           1.31566028135354   -0.23353599418597    1.78707263362412
O          -2.47960335904995    0.36167974347346    2.06155781284748
H          -2.12949806225640   -0.82268069641075    0.73294571203530
H          -1.74611081212677    0.99896330805193    2.01982056043935
H          -3.28557065413852    0.87107871161460    2.15491245244423
N          -0.30085923774073   -1.38374449412452   -2.67964962938201
H          -0.49507038006974   -1.97019170016665   -3.48053156969251
H          -0.42771918190822   -0.41388859279491   -2.94285881843819
H          -0.96805737228626   -1.59886563421584   -1.94455047255138
H           1.10277716990156   -1.58084515443866   -2.14275809204893
