    26
        -50.45649616  Gyration_radius:  2.4794465194 Dipole_moment: 4.759
 S           0.73351375281733    1.14163738271968    1.23315874240407
O           1.44807262706145    0.71138317064783    0.00402835169060
O           0.01650677029847    2.47829766663357    0.87006794924553
O          -0.30660415941726    0.14326692688570    1.53443030461332
O           1.64253518210720    1.32300383412620    2.32053681482459
O          -1.75085585489597    0.61494094359833   -2.05196859201057
H          -2.20676547483279    0.71926019642888   -2.88788872676585
O           0.81489731347486   -3.33085208900838   -0.26978695205688
H           0.38137530352380   -4.10856034311494    0.08584075096944
O          -2.34906369647377    1.55328184044032    0.44920591185411
H          -2.05354520531372    0.82622651481376    1.01738162403292
H          -0.95112380861634    2.26332676477637    0.70147107775471
H          -2.31282028139110    1.21128360687021   -0.46524731514649
O          -1.05803532954070   -1.52430054156731   -0.41078239727524
H           0.08440194457145   -2.69046092691227   -0.48938745543582
H          -0.80240821230644   -0.93066149027746    0.32565473726260
H          -1.28358599869384   -0.93260369619793   -1.14413165594472
O           0.42702680857337    2.09005622086913   -1.99038973048872
H          -0.92006112337133    1.15620910920718   -2.11282607165792
H           0.26984494075005    2.92802283293058   -1.54734330128258
H           0.92629449328897    1.55258081493292   -1.33543406201464
N           1.87865591507908   -1.47276960798217    1.25200603144484
H           1.57408320485506   -2.32693438901691    0.68866456913772
H           1.90533612680825   -0.61904603810781    0.58887783597000
H           1.12916813323272   -1.18752741023299    1.89731007829613
H           2.76315661825834   -1.58906131350895    1.73655147046358
