    26
        -50.45649613  Gyration_radius:  2.47944159414 Dipole_moment: 4.759
 S          -0.28707807772189    1.45131749856804    1.08253243379903
O           0.27674936200354    2.52824563615062    1.83359230845636
O           0.05015401211974    1.53122209730155   -0.34896772876183
O           0.17923250381771    0.13811123371308    1.59690783796883
O          -1.84201348607442    1.43453835758452    1.20303643306907
O          -1.86940149508116   -1.80352289814500   -0.95242286680326
H          -2.37472820034040   -2.57946545097930   -1.19750707981729
O           3.11033483713504   -1.07439778835365   -1.00145510183509
H           3.59779214735713   -0.90407152129152   -1.80927019781429
O          -2.41908953626665    0.86276098991420   -1.24003984755213
H          -1.54349690674864    1.23407175942368   -1.42498674279129
H          -2.31519264320367   -0.10745092547542   -1.28938311365841
H          -2.21174205238323    1.24302438551065    0.28784325402510
O          -1.92136229187111   -1.44470253302398    1.65369590752495
H          -1.07546758913415   -0.94911158290874    1.73049332780261
H          -2.59779349384738   -0.81096201723932    1.90664731305592
H          -1.88974975384440   -1.75362747457064    0.03950798866465
O           0.60731513219921   -0.73652505033295   -1.64349266691160
H           0.41228009628756    0.11380779354535   -1.19739443460844
H           2.15158494501852   -1.11764294928326   -1.26772889318870
H          -0.15560452834683   -1.30208392028485   -1.45139194686351
N           2.47037720522024    0.81935581807583    0.70275813051367
H           1.63975375067779    0.37801522959461    1.23630912157689
H           1.97986094682023    1.53260105657911    0.14593129347202
H           3.13640595274206    1.23986763532312    1.34324381037083
H           2.89087919340934    0.07662465063784    0.06154148031319
