    26
        -50.45649615  Gyration_radius:  2.47943353525 Dipole_moment: 4.759
 S          -0.95081537831300    0.48409093715314    1.49078851605586
O          -2.37341662096806    0.69287928898646    0.88631153627794
O          -0.52982613437598   -0.89256869396799    1.17928073880106
O          -0.05413641251029    1.41949327826295    0.76457427120352
O          -0.94328267598872    0.74894057916250    2.89489334260135
O          -0.88700485450393   -0.10682800781308   -2.61830919251630
H          -1.01283568571987   -0.01735488858363   -3.56364743346246
O           3.36500871186571   -0.71294861934600    0.00544947393003
H           3.82331106582863   -1.55356985719137    0.05554098756847
O          -1.34221354607158    2.18011489621138   -1.39947038983129
H          -0.77702213221436    2.01868783035866   -0.61107106471502
H          -1.02621342307675    0.79570988289848   -2.22723921447375
H          -2.23727152578194    2.21985885782035   -1.05241965623322
O          -2.42270256600483   -1.32747732483511   -0.70886097563008
H          -1.75404357120470   -1.68722227644915   -0.10700432360877
H          -2.54085967898385   -0.06331839847295    0.24518032811586
H          -1.93590547138738   -1.02056359292959   -1.49838371838504
O           1.01461384715719   -1.28700793875752   -0.96277075658618
H           0.45209378311347   -1.17649301688373   -0.16813995847048
H           0.52548582680631   -0.85529106010335   -1.67913844777459
H           2.53556749967752   -0.88763801011223   -0.51751479555918
N           1.85255054949782    0.20369459658214    1.94770719160273
H           1.21788110252259    0.91070280413819    1.43138238208852
H           2.22622734186411    0.60234464401965    2.80334194977995
H           1.17726196494052   -0.54777640157817    2.14457666961433
H           2.59754798385654   -0.14045951857428    1.26494252958140
