    26
        -50.45649614  Gyration_radius:  2.47942264138 Dipole_moment: 4.758
 S           0.33000002334939    0.94816605619982   -1.53373108981488
O           1.37252821255626    0.67549866262089   -0.51135434564363
O          -0.98885131091457    0.83879631207167   -0.88711443451741
O           0.52992164264558    2.22386961545096   -2.14559745456735
O           0.44120397547310   -0.20210111704771   -2.58117328898470
O          -0.06336672335805   -2.74778084791885    0.31615067828184
H           0.05800415565803   -3.65674376094529    0.59287152782378
O          -0.41620658145682    1.43057963421563    3.10049333406417
H          -1.21506911174724    1.66698616680682    3.57496370466261
O           2.11656808472099   -1.82710055589104   -0.83414951551704
H           2.06213349596670   -1.89263722256565   -1.79117145003407
H           1.96895325272018   -0.87412727044981   -0.64154335129330
H           0.80461751158817   -2.44876936863969   -0.06342831013506
O          -1.14744929547794   -0.44683408980299    1.44762777827999
H          -0.72752582097516   -1.30105780510439    1.26654799277712
H          -0.63828294511533    0.60404566525844    2.59112683215661
H          -1.12319209401752    0.03440723350489    0.59444437732345
O          -1.50019941387100   -1.67632990563582   -1.75301919261040
H          -0.29650940652734   -0.85711732470925   -2.38690680437301
H          -1.11585290282734   -2.18313320638111   -1.01141186588385
H          -1.82747562333875   -0.84925244075267   -1.36888482398804
N           0.27522580582214    2.55090390392602    0.82736631935870
H           0.02895276878936    2.24749390204237    1.82079598313441
H           0.66552328112295    3.48591820262695    0.76373893427769
H           0.94691665710998    1.81699898492773    0.40364525092124
H          -0.54056765772578    2.43932057631082    0.20971319432815
