    26
        -50.45334087  Gyration_radius:  2.59310134046 Dipole_moment: 3.801
 S          -1.13127373908848    0.91276283991661    0.30633185196825
O          -1.48649702414781   -0.04286702209927    1.33319555632331
O          -1.18074524730448    0.22197882189083   -1.05492642812926
O          -2.23610095324797    1.96985837171428    0.18661042084317
O           0.13253961322474    1.55663474205852    0.51861923965348
O           2.14302936881177   -1.36031637171475    0.91991705712850
H           2.50002307462206   -2.16459057313423    1.29951663835112
O           2.27871451551922   -0.08934495254829   -2.78742036010340
H           3.12694353701129   -0.41207601254428   -3.09483393546740
O           2.65932506128144    1.05961470631349   -0.42245806960939
H           1.80792261960108    1.43899200872515   -0.15161562080762
H           2.74205648923067    0.24475530013185    0.09342428961832
H           2.46577684945954    0.48377297915993   -2.00483327600154
O           0.77882942425230   -0.04067737219876    2.73823227988228
H          -0.12454074169609   -0.15766494748184    2.38539488257403
H           1.64436293619322   -0.90454987605689    1.64965195792664
H           0.99952376848270    0.87083217648574    2.52152597630709
O           0.59408852362483   -1.50064024525737   -1.30708988766695
H           1.17071780775539   -1.07167837694743   -1.98734134390892
H           1.12351066710718   -1.50163433648274   -0.48134919766417
H          -0.44529667403598   -0.53846268210106   -1.17065873625355
N          -4.03466227453146    0.14769815155977    0.08524102240112
H          -4.03047257855700   -0.28472360249215   -0.82912268294982
H          -3.43220872503024   -0.39235696580171    0.69979153085797
H          -3.08694631224921    1.40795670643781    0.10559777273271
H          -4.97861998630214    0.14672653246209    0.44859906201787
