    26
        -50.45731614  Gyration_radius:  2.44444625053 Dipole_moment: 6.861
 S          -0.70992334809120    1.83457502039587    0.36655410582546
O          -0.94560709365105    1.54112651831008   -1.03631966455533
O          -2.05751853882431    2.28277998535730    1.00901913788021
O          -0.30713590129505    0.60864538921352    1.10219589045062
O           0.28103257859753    2.86779453444660    0.57258786613366
O          -1.60774764354169   -2.27594417789893   -0.64918461190935
H          -1.96642872374216   -3.16058234909280   -0.72594765161189
O           2.51326899954282   -0.71522988384240   -0.69343523676775
H           3.18460951736106   -0.82181759138990   -1.36862902608907
O          -3.06813997510216    0.14276738813735   -0.23444550169975
H          -2.49816130848152    0.60294266731486   -0.87030056498474
H          -2.71456437472986   -0.75984186542487   -0.20998666681558
H          -2.66016090457079    1.54559331348085    0.78194378785285
O           0.41455692385733   -1.97382102627147    1.05856982023308
H           1.22235195374728   -1.86040485063486    0.54524602666753
H           0.06484181451189   -1.07373027646891    1.19604710387306
H          -0.91789149907370   -2.30333549238048    0.05435835226027
O           0.25911017690737   -0.61425401907537   -1.94840002233469
H          -0.15290767016394    0.24560936857950   -1.71423747844059
H           1.63767335936105   -0.67645164533152   -1.19246152958296
H          -0.39614802418113   -1.27627333873113   -1.67556378151194
N           2.14834100886494    1.17312314943462    1.14264407671690
H           1.83243831717771    2.10543023020575    0.79573912214059
H           1.16540493786745    0.78590595419671    1.37577807623656
H           2.50450344136541    0.54455390039333    0.38004250987918
H           2.77420198628594    1.23083908707527    1.93818587015303
