    26
        -50.45567425  Gyration_radius:  2.46090625738 Dipole_moment: 5.084
 S          -0.24746498045662    0.11024052987688    1.92626574917499
O           0.14244107416745   -0.73329431062765    0.82320370259127
O           0.99083282492885    0.46165338076389    2.75581993762998
O          -0.70724343535899    1.47134639504338    1.36702997483334
O          -1.26280907824694   -0.44241283265444    2.76968993974830
O          -2.12533221160372   -0.82991616312422   -1.52617456113502
H          -3.00418784033914   -0.70826983310222   -1.88933052809075
O           1.79064407393688    0.49080879343855   -1.81145117083265
H           2.14533189804055    0.59421301707786   -2.69567503984943
O          -2.55086992739566   -1.85367531820022    0.89265652263179
H          -2.07591158647951   -2.68553422256908    0.95324150758603
H          -2.20657744924973   -1.30955408977658    1.62811653362756
H          -2.25754017767355   -1.18889186675047   -0.61345709345160
O           0.51869759074485   -1.79943554787030   -1.58649360226406
H           0.47086778308263   -1.64645894777195   -0.62702712669141
H          -0.38468918792897   -1.63221324284104   -1.88875224891888
H           1.41517206862167   -0.43028667056245   -1.76570995626541
O          -0.68264721158708    1.42676949408746   -1.15008745300231
H          -0.70912849026834    1.48746615693408    0.33323343353681
H           0.23207249060852    1.18194475955550   -1.39628985315846
H          -1.22732963925610    0.63119982104669   -1.33423374114189
N           2.40468977290728    1.51322336825735    0.90113727312183
H           2.23390974606028    1.00132608637277    0.03768621584528
H           2.04573052425431    2.45252022665607    0.78560559034565
H           1.64796180692115    0.87467623569812    2.05560224284254
H           3.40337955157682    1.56255477102507    1.05539374128140
