    26
        -50.45771254  Gyration_radius:  2.41535869622 Dipole_moment: 7.108
 S          -0.90278204404862    0.66967059671122    1.51194200166530
O           0.01915895091604    1.20658346212202    2.51840233938781
O          -0.33762268439542    0.90207036707906    0.18848103342655
O          -1.23323393390302   -0.72591072770429    1.73517795310893
O          -2.21809565174927    1.51118722472472    1.60622041210545
O          -1.32250153406750   -1.12482578287249   -2.23634018925888
H          -1.61423823504372   -1.39314234327417   -3.10844406239586
O           2.43085150442256   -0.82031299540910   -0.08800205899362
H           3.03181671357570   -1.44363185696880    0.32328379852039
O          -3.08709232670385   -0.26999931789042   -0.17153486062601
H          -2.65968687391497   -0.79812430343794    0.51863072198154
H          -2.77664849862528    1.09682175908090    0.91690156772784
H          -2.55870262528779   -0.43393784388773   -0.96950960028843
O           0.17648274564881   -2.06087432077797   -0.04913849520413
H          -0.33024687054210   -1.65416167523764    0.68683970098798
H          -0.36053083759013   -1.89167590218023   -0.83989098283113
H           1.53143924409107   -1.28647805683057   -0.08857990272849
O           0.79008942328631    0.53329198235293   -2.15853753018214
H          -0.59949690826002   -0.46816495555451   -2.36131973546120
H           0.34519752968539    0.78816777642122   -1.32565525434057
H           1.53762184244063   -0.00650058215045   -1.88195933626363
N           2.06656085774575    1.55100445994130    1.05790928836705
H           2.25497440458495    0.59209583044213    0.63664844272762
H           1.69585314574571    2.14103014071408    0.31539962371105
H           1.22932059223359    1.42824763447833    1.77511373093272
H           2.89151203975383    1.95756942010796    1.48796138392404
