    26
        -50.45479408  Gyration_radius:  2.47181809299 Dipole_moment: 5.889
 S          -0.71676923945393    1.94196231417319    0.37736429169008
O          -0.22814323449681    1.75007667055658   -1.07802518168796
O          -0.76403838779442    0.63559419635944    1.00975362943893
O           0.38807463872388    2.76943086809051    1.03468954714419
O          -1.94605805784276    2.65485393664741    0.36737758998695
O          -1.63232541902587   -1.92792665678047   -1.27571667234688
H          -2.12636426124743   -2.42792258275154   -1.92686532212016
O           2.05831839181759   -1.51117072746165    0.54703765021575
H           2.58362677886464   -2.31236837855057    0.53703666634167
O          -3.05874357856271    0.08639815097657   -0.25877203430963
H          -3.33930670090495    0.95783215676769   -0.55053912817407
H          -2.36210898530263    0.26805071911428    0.39522770989492
H          -2.22628244438295   -1.20514237139019   -0.96932812746896
O          -0.39675067215398   -2.02690810297449    1.27383087579323
H           1.17307177058676   -1.76112763497325    0.93319496888695
H          -0.60836474943290   -1.09069250455922    1.42277508558903
H          -0.87125572750927   -2.25634209534971    0.46118757174309
O           0.69677203561999   -0.55209990038468   -1.61008468821613
H          -0.11298142383531   -1.09880705601036   -1.58638325140730
H           0.16764460533973    0.82753099349719   -1.28070014240137
H           1.25967808240257   -0.87945333310192   -0.88069868672157
N           2.48566557815611    1.38047379919436    0.60210955943812
H           2.31766854517747    0.39134516344657    0.77650899284294
H           2.69307534436198    1.49609607033950   -0.38205356593118
H           1.27532507595663    2.21854781317922    0.91985447759035
H           3.29057203493880    1.67176849195275    1.14121816419320
