    26
        -50.45479398  Gyration_radius:  2.47186991676 Dipole_moment: 5.886
 S           0.81097000286751    1.11313623973611   -1.59010170466087
O           0.42905501444588    2.15727741564822   -2.47523141173824
O           1.13802730280390    1.71578855936958   -0.20327090260299
O          -0.17929681038034    0.06788039747526   -1.40192225140997
O           2.12566856266740    0.47321654918025   -2.03700998613619
O          -2.41160244793479    0.79711168409648    1.24896048548137
H          -3.06241969436340    1.25706365677393    1.78090419453361
O           0.37779356835520   -2.25868933160152    1.25423143725324
H           0.19691880209962   -2.94231769432805    1.90066518302671
O           0.23472378816634    0.41205486493398    1.77735212979823
H           0.79299517577128    1.17258261791272    0.59338800461309
H          -0.72581051704148    0.57345165798178    1.69727422103341
H           0.35428612195098   -0.54940510856414    1.64562342742725
O          -2.10598160730318    1.91361123768568   -1.15675098881082
H          -1.53091678662489    1.18168247531939   -1.43867803175246
H          -1.67775739085441    2.69766715927984   -1.51035862924599
H          -2.35653654718658    1.28201117690808    0.39404303545680
O          -1.78995170131930   -1.63754892132085   -0.06357143941847
H          -2.22744064449715   -0.94682610525927    0.45576075261463
H          -1.30078141895733   -1.15317271853507   -0.74883218704038
H          -0.45783021650676   -2.14925608564199    0.72034252987728
N           2.69060946993123   -1.09533123409145   -0.10387708095148
H           2.38493346629975   -0.21756298790045   -1.28909482067886
H           2.99469622526610   -0.49746802484796    0.65444666563225
H           1.86900843969028   -1.60975151684495    0.20819155319296
H           3.42663986265379   -1.75720597336583   -0.31248416549392
