    26
        -50.45479401  Gyration_radius:  2.47189448429 Dipole_moment: 5.886
 S          -0.28867007456276    1.69079627056801    1.21804610855903
O           1.06196025571161    2.35127222050911    1.49587365391671
O          -0.23403325748316    0.36997997816304    2.02175959641248
O          -1.35504346508360    2.49236071159750    1.70779670189268
O          -0.36494767354307    1.35402603152706   -0.19246312751594
O          -2.18420635856584   -1.63023080254321   -0.76339158712502
H          -2.90215865472877   -2.26474356950414   -0.76095226157000
O           1.87633671344350   -1.15697590155192   -1.39966169361871
H           2.25245077557622   -1.81871871930541   -1.98154336571327
O          -2.96955480854814    0.78275304758423    0.06549847406200
H          -3.18213945405018    1.19441604179019    0.90722128153026
H          -2.55986847405393   -0.78219189996033   -0.43356182284024
H          -2.10534031947828    1.16059849111950   -0.17184915776761
O           0.15343721092262   -1.71940226798415    0.63543425735494
H          -0.05243896833704   -0.46751386275507    1.46080480582573
H          -0.69419873916333   -1.79713943535805    0.15520886666950
H           0.83325682843429   -1.56186253064869   -0.04944766208356
O          -0.34730571915019   -0.21261885195456   -2.39214316143142
H           1.09769918845328   -0.76610147149682   -1.88570949834700
H          -1.04913437995548   -0.80202299871329   -2.07873845305244
H          -0.36801295037520    0.53861532294614   -1.77677224554589
N           2.73590569392799    0.54845701630748    0.81420935457480
H           2.47187795481910    0.11154188783051   -0.06693078260201
H           1.79364218542740    1.66125363424193    1.19238190677011
H           2.69144058327368   -0.15537560923704    1.54055809996509
H           3.68904587709061    0.87882727682404    0.73837170168082
