    26
        -50.45731614  Gyration_radius:  2.44444670148 Dipole_moment: 6.859
 S           0.60245187780850    1.90450945493208   -0.11429386468624
O           2.03225240750922    2.11393448017111   -0.17630062757152
O          -0.08429506823614    3.20952826324416    0.39062402390119
O           0.02155584756678    1.54695129291903   -1.39667226601866
O           0.29727299404542    0.87281083677966    0.90980402278053
O          -2.72940483939774   -0.85688750776808   -0.05004539045120
H          -3.55448019508403   -1.31901851602309    0.10107792223802
O           1.43316667820307   -2.24134087707777   -0.48461136200045
H           1.79020804156051   -2.87327069676824   -1.10999842973416
O          -2.35678852546208    1.96553337039825   -0.26880750650595
H          -1.73334064456363    1.83297886411376   -1.00006696323507
H          -2.61749057401811    1.06680163420813   -0.01447681724485
H          -1.03513913268349    2.97929758942655    0.35752404900822
O          -0.69423363384296   -1.54112331203169    1.52727261560646
H          -0.07349880567690   -2.05980812000503    1.00332205898746
H          -0.40623069026253   -0.61432408693487    1.43000791276870
H          -2.09469742135203   -1.16496356423318    0.63832282737632
O          -0.47124669750120   -1.01762981490939   -1.72656245468497
H           0.69130043261275   -1.76873162050087   -0.97799182761275
H          -1.33974921664781   -1.05793229839654   -1.29520147413697
H          -0.24130667657240   -0.06312001500768   -1.72012418968702
N           2.56805165203482   -0.21500238588593    0.80988943177002
H           2.35039990821542   -1.06559394725085    0.23305460270694
H           2.82594593105148    0.61807166837837    0.23646786765808
H           1.60129500976959    0.14831849209732    1.13206230747754
H           3.21800137092279   -0.39998919387505    1.56572356128911
