    26
        -50.45479412  Gyration_radius:  2.47177616297 Dipole_moment: 5.888
 S           1.84653158803004   -0.21499052551683    0.98534526272585
O           2.55359424283064    1.13977201602604    1.03409463440412
O           2.69976301402800   -1.24910617291606    1.45658311832002
O           0.65638065857196   -0.05387936798945    1.96057159277991
O           1.30863292282965   -0.41554349444075   -0.34843261022480
O          -1.32449364978650    1.76302380650898   -1.39908010407867
H          -2.05808718922089    2.09965091778053   -1.91525931173930
O          -1.74887355544834   -2.20409184802856   -0.30288542171806
H          -2.38439110374178   -2.90239349714611   -0.13995996302342
O           0.74983495171667   -2.96789148064899    0.24502534640002
H          -0.86638513342370   -2.56789723510500   -0.06220141925082
H           1.27662926555694   -3.10826555826054    1.03616193816762
H           1.09964609516135   -2.14115505932394   -0.12919201432728
O          -1.60662869836937    0.25906768581128    0.85609431146107
H          -0.25070047392707    0.09779768486287    1.51015056832278
H          -1.54166207026534    0.86532428222409    0.09172791302602
H          -1.76419115737374   -0.62834343538845    0.47831235010631
O          -0.56079535940975   -0.56981089237932   -2.29149658583987
H          -1.01773403816407    0.93126503666895   -1.85659966083953
H           0.27151084488299   -0.55047391992312   -1.79110851520526
H          -1.10664205881810   -1.22258461032040   -1.82873669925191
N           0.69015447577123    2.78612237444051    0.45599279850408
H           0.09689618396961    2.82767558271221    1.27532250444352
H           1.83511612083534    1.85618572345644    0.76193368413853
H           0.12884166779524    2.45119508780767   -0.32489470713579
H           1.01705244597205    3.71934689908065    0.24253097982901
