    26
        -50.45479411  Gyration_radius:  2.47172582202 Dipole_moment: 5.893
 S          -0.83272836267676    1.64952416524626    1.00651259660101
O           0.01317973826519    2.05557364389074   -0.22357581263275
O          -2.03473130701944    2.40754088174780    1.01766028317909
O          -1.00976633156364    0.20861729032150    0.97235030971082
O           0.05052042363999    2.01048151898870    2.20109909546856
O          -1.21072319534758   -1.03635619558762   -2.33799706848794
H          -1.51131549077382   -1.16139373262374   -3.23914415748989
O           1.88458093902157   -1.78227144154809    0.30367594403030
H           2.41294044985707   -2.54637610578947    0.06934737193000
O          -2.89359267299124    0.47004933489597   -0.91469684732424
H          -3.10836371600949    1.40455490567928   -0.85372862749121
H          -2.39104706753373    0.28862859130351   -0.10200686887797
H          -1.87910095083052   -0.46332103451935   -1.89762810816770
O          -0.66244719568517   -2.33147661824881    0.12335717305777
H          -0.90939341923910   -2.14565263695003   -0.79462044544536
H           0.93603901024059   -2.09105056450094    0.31817160172524
H          -0.92582712851190   -1.53439085052412    0.61197188937651
O           1.09564388301026    0.12929221531797   -1.47112414617717
H           1.46151900948072   -0.52925328941427   -0.84782872932919
H           0.31905496481440   -0.29787218080172   -1.88289935719381
H           0.46862047833007    1.27676575056417   -0.70822301792373
N           2.21975869116978    0.75506423527533    1.71671251938030
H           2.66704813359349    1.26092370318776    0.96239654587035
H           2.85515185931085    0.71290321948359    2.50273640347385
H           0.94994852861724    1.48318969231208    2.07132267171816
H           2.03503067883844   -0.19369448770911    1.39615879101899
