    26
        -50.45479406  Gyration_radius:  2.47182242372 Dipole_moment: 5.888
 S          -1.23791758806811    1.65114008874743    0.41019233718751
O          -0.67955419369085    0.98772125925759   -0.75461607784908
O          -0.36934755340821    2.86183493667658    0.75284927727812
O          -2.60477927655508    2.02343481767242    0.29780973529385
O          -1.06546216486827    0.70843655502825    1.62468997940927
O          -1.10926082780728   -2.52612327913266   -0.63120969772504
H          -1.53529587333595   -3.38257172653991   -0.57596735590446
O           2.52199020331023   -0.56054089061659   -0.37847711168651
H           3.27517203818889   -1.12100081508010   -0.56971013217884
O          -2.86845283179975   -0.54426806716089   -0.95269919179612
H          -3.49385768297028   -0.07174532883402   -0.39706689751850
H          -1.82890047064313   -1.86227969787221   -0.73383273343295
H          -2.14661220050257    0.09252825136792   -1.09197971170678
O           0.44852110051994   -1.28953381424740    1.23245181690457
H          -0.09110968856035   -1.82816240236842    0.62107054801798
H           1.24397188334669   -1.03015348428599    0.72646929646635
H          -0.43365504060709   -0.08249270739433    1.46915035038306
O           0.64197767040356   -0.90287910069375   -2.15874021195280
H           1.89522745289570   -0.66083142523623   -1.14818513485500
H           0.10124208846069   -1.63849637024120   -1.83520940163667
H           0.15884059342447   -0.10654602376160   -1.88323270418949
N           1.91754390226923    1.82147481164665    1.20531071238457
H           0.60105754081609    2.49144908902101    0.91018141091471
H           2.14939259626840    1.11807975513399    0.50639136552495
H           2.67340681091443    2.49221811561242    1.25202104151979
H           1.83586150198930    1.35930744329722    2.10233849114267
