    26
        -50.45514683  Gyration_radius:  2.45625547346 Dipole_moment: 5.633
 S          -1.35349447025462    1.08978236830822    0.93183518602628
O          -1.02338231998624    1.37096206801659    2.39983163337274
O          -0.17143008702820    1.26831934857449    0.13257773795735
O          -1.72475626675880   -0.41919033513563    0.91436650773751
O          -2.50142330199750    1.84204410323272    0.53321566800874
O          -0.37369862334618   -0.65408852475342   -2.64358027532510
H          -0.62397137215785   -1.03926483203217   -3.48495791011423
O           2.50974428969991   -0.63897914777808    0.24785512863415
H           3.32791356502617   -1.07059409993361   -0.00245649589997
O          -2.65398478284786    0.38278288744709   -1.71303369212133
H          -3.12204092472528   -0.34436922417440   -1.29433618486151
H          -2.63535180531456    1.08677362719949   -1.03960294802150
H          -1.16359282247288   -0.15793475072117   -2.32354801885982
O           0.09279895756987   -1.78971726186599   -0.20554685502043
H           0.96731669692661   -1.42851153081837    0.04624198399681
H          -0.97875014004956   -0.99202281983366    0.50326289170036
H          -0.04264477449398   -1.50041688530421   -1.12875375715568
O           1.73065781970233    0.93945762860723   -1.69520005288991
H           1.16073312446436    0.38622348856966   -2.25069295637994
H           1.10249701266618    1.37312814116541   -1.09439407651192
H           2.30590215502223    0.01481870425534   -0.47884534567860
N           1.10919975576134    0.00874272798949    2.74451199736811
H           0.85611128723911   -0.93587032465317    3.00486361459489
H           1.60288486666737   -0.02639017052302    1.85411293777127
H          -0.13134074055689    0.85044548380235    2.59630034741715
H           1.73410288124614    0.38386932035646    3.44597295425307
