    26
        -50.45479412  Gyration_radius:  2.47178855979 Dipole_moment: 5.888
 S          -0.03523031718507    1.92129062726700    0.85719916307686
O           1.32555381648439    2.58882455430127    0.65661333050792
O          -0.97410341997802    2.83837288224999    1.40214901602419
O          -0.43676222535857    1.29094836547102   -0.38782673266687
O           0.24240752527906    0.80341291504584    1.89012969417171
O          -2.25743531180225   -1.69938257974888    0.15220749683844
H          -2.93659635356390   -2.29947156759325    0.46319122669454
O           1.51740379304003   -1.47896821236775   -1.52676906835836
H           1.76108149397390   -2.25981337238955   -2.02560459170337
O          -2.88680143376917    0.85523084567249    0.60481847981566
H          -2.56589394980333   -0.79071078676003    0.37192416188244
H          -2.11559843801290    1.15080758605406    0.09118520809072
H          -2.90304622930849    1.44452659191047    1.36353164126220
O           0.34902837715931   -1.54480275650834    0.93442878075006
H           0.84002109106233   -1.55601490244610    0.08896558741498
H           0.30987671156245   -0.13926936091845    1.49571028149015
H          -0.58646166498414   -1.70327440216097    0.70017994309937
O          -0.90442125861345   -0.71389414549893   -2.13584142787422
H          -0.79749097529208    0.15276018482997   -1.71045238925313
H           0.63454530384592   -1.18208404593917   -1.88412756928893
H          -1.49409922102718   -1.20347756272457   -1.54358884665511
N           2.83515445309098    0.63803741267738   -0.00068806831194
H           1.98137372968464    1.83027465931766    0.34307772240403
H           2.98303995881452    0.10730548456159    0.84867625288360
H           2.38049457649460    0.02987657217011   -0.67924452486362
H           3.73395997820913    0.91949500352168   -0.36984475743231
