    26
        -50.45479405  Gyration_radius:  2.47184155294 Dipole_moment: 5.887
 S          -0.27582588904462    1.95590685469847    0.72467130703850
O           0.10558370965354    0.94827683765025    1.83501187577868
O          -0.57323662647045    1.20265729654780   -0.48068391540425
O          -1.32671565744177    2.79059083619415    1.19193503323584
O           1.00285032521008    2.76334691882507    0.49982068433599
O          -2.05026136579375   -1.93713604432274    0.23167621334159
H          -2.66320850062842   -2.59053244071615    0.57143493519226
O           1.71280757851158   -1.38932105017635   -1.39820868397415
H           2.05657547314453   -2.16723331699747   -1.83936834436331
O          -2.97952962332272    0.55096112209380    0.50030037109698
H          -2.46625995012771   -1.05811719875062    0.38447960729232
H          -2.23547273270912    0.89981640814078   -0.01990392291653
H          -3.08132180078509    1.18294489262267    1.21688479711264
O           0.50187863053395   -1.42952633665337    1.04293118720897
H           0.28927490236665   -0.00424538489327    1.50669458885668
H          -0.40344954216169   -1.71050175930428    0.80503785111842
H           1.01086219526907   -1.43903178313874    0.20817508735405
O          -0.76592246898086   -0.95298331715354   -2.09608434339460
H           0.81027479256577   -1.22138168452611   -1.78874133628528
H          -1.30917471603230   -1.46801723828288   -1.48141579546129
H          -0.76942026705189   -0.05380378309662   -1.72874111098070
N           2.74230270984456    0.96335034224581   -0.00086482308207
H           2.37598048791403    0.26249789397984   -0.64246244841610
H           1.74896280253460    2.06767801245431    0.24840365220995
H           2.93199270219129    0.51112600696454    0.88483092868647
H           3.61045284080818    1.32267792559373   -0.37581341557710
