    26
        -50.45731603  Gyration_radius:  2.4444125085 Dipole_moment: 6.862
 S           1.52968598881830    0.97394515544833    0.84561983076966
O           1.86277219766280    1.21371156260953    2.34934042971880
O           0.04970947637462    1.05521094120488    0.74837758960033
O           2.12336753230401    2.02889236388688    0.05398300620626
O           1.99954048382984   -0.35003946928155    0.47699093870281
O          -0.76158115124345    0.00814752285474   -2.59423556250893
H          -0.65704855020090   -0.32566487207030   -3.48619132105338
O          -1.32508438684277   -2.26520308100846    1.13854538646006
H          -1.97534834943508   -2.91452291726909    1.40815926227583
O          -2.27797487010404   -0.05048446752561    0.00475238693649
H          -2.08914979887273   -0.09527061382876   -0.93931323892138
H          -1.82012583162154   -1.48366694254066    0.79835986515643
H          -1.50691604754717    0.39402816647712    0.40369409972776
O           0.82517040479701   -1.22463170334481    2.70401695411654
H          -0.02679451437305   -1.54346298371731    2.36808654252110
H           1.41516693457842   -1.27152016763552    1.93545745873059
H           1.45761503183163    0.43714030179343    2.78633629890777
O           0.36228624435175   -1.73164187957818   -1.05256863960273
H           1.06458765411729   -1.25577244779107   -0.55831979648683
H          -0.20925517714588   -2.10118768645614   -0.36053628576840
H          -0.31976147047685   -0.67670438998757   -2.00017475247384
N           0.04023889338484    2.27403409106025   -1.45703954661737
H          -0.19891099804003    1.48826767065424   -2.11189336203309
H          -0.41366806925913    3.14791048689600   -1.69832599083786
H          -0.21386121118143    1.89575217692227   -0.47580062398844
H           1.06533961429388    2.37273320222799   -1.28732093953802
