    26
        -50.45479401  Gyration_radius:  2.47187841281 Dipole_moment: 5.884
 S          -0.73831693501374    1.89894291090657    0.52377123056562
O           0.36638453979592    2.69964568025966    1.21376840074807
O          -0.27779839034584    1.81557824742524   -0.95074387432997
O          -0.74999899718505    0.55194615943193    1.06626242438480
O          -1.97932656052980    2.58835018493987    0.58766955670470
O          -1.63126805942846   -1.86734265260467   -1.36560493352616
H          -2.13224580188893   -2.33158570581861   -2.03757091605624
O           2.09517224604369   -1.50682660121925    0.39452392478922
H           2.63325096886019   -2.29582035279626    0.31746781115249
O          -3.06566219244232    0.04807693951277   -0.18265809659543
H          -2.35610216405714    0.19799015682890    0.46546429131889
H          -2.22977411420360   -1.17781440408427   -0.99757613488429
H          -3.36762038823332    0.93195188879103   -0.40804735725509
O          -0.33236076511592   -2.11495353200011    1.14197085681327
H          -0.82278571500828   -2.29803057756906    0.32702346282406
H           1.22395935221908   -1.79838744223476    0.78344844712192
H          -0.55569034215602   -1.19477684764799    1.35850463342347
O           0.66571794061153   -0.43006871010701   -1.66030688904680
H           0.12524199086729    0.91485630202328   -1.22553721614375
H           1.25181709831059   -0.79549336910296   -0.96817371796313
H          -0.13439437897719   -0.99129886967208   -1.65419629409846
N           2.47624284345646    1.38194546239538    0.63959190896301
H           2.32825559373956    0.38031057194056    0.74837528919570
H           2.65844467320848    1.56903300979149   -0.33854330921060
H           1.25976459592450    2.17469058680730    1.04180741618259
H           3.28909297154936    1.64908095380448    1.17930907492260
