    26
        -50.45567461  Gyration_radius:  2.46074543681 Dipole_moment: 5.087
 S           0.25951552409108    1.92085356847806    0.17567130500737
O          -1.03901524121887    1.74784518712881   -0.63706489234193
O           0.80667650933370    0.61548292482906    0.45307010377186
O           1.15076270080799    2.80846765114676   -0.50652765410050
O          -0.21640187202695    2.55752458829965    1.48460442551723
O          -1.14800012204630   -1.97780781458232    1.22455936597028
H          -1.46678423214201   -2.87352929321861    1.34469397235928
O           1.00714924800922   -1.23646899441337   -2.23339820146008
H           1.02030514336534   -1.39533534029949   -3.17866549702994
O          -1.41433049447090   -0.68607177718985   -1.16080478781372
H          -0.56206579896595   -0.92343553689088   -1.58582670395697
H          -1.41301693684354   -1.14350335346352   -0.29586885223891
H          -1.22432972461543    0.75742821231167   -0.86872578375490
O           1.36769444291249   -1.98649857605357    0.45802487337768
H           1.35047244784149   -2.07314893961288   -0.50510801020763
H           1.38432523702750   -1.02444892434400    0.60094602352064
H          -0.17281089679715   -2.04988003632644    1.03723103091771
O           2.47910418041815    0.95703715308477   -1.91410040939829
H           3.18735314433228    0.75477362974540   -1.29865764494606
H           1.52975270842324   -0.40820154943641   -2.09122784188287
H           2.00183789042214    1.71087401273807   -1.51477271520998
N          -1.83204063060743    0.72218433392094    2.23679467108976
H          -1.43877250542306   -0.17889058363072    1.97201951928135
H          -0.86881618279302    1.84478978162686    1.88356123918622
H          -2.67807102495923    0.86553904304477    1.69998405442512
H          -2.07049354407908    0.69442064309832    3.21958840989710
