    26
        -50.45567463  Gyration_radius:  2.46075965627 Dipole_moment: 5.088
 S           0.49230592950486   -1.47023025690146    1.17654225331364
O           1.99079110567547   -1.73719182132143    1.34511447496655
O           0.27072372522130   -0.04850878508786    1.07698324809731
O           0.15889613060849   -2.11683104239763   -0.18266686568874
O          -0.24214546464346   -2.11674963494332    2.22064444529307
O           1.07941324797670    1.66407217778216   -1.67214966485747
H           1.10210408783559    2.34337454956040   -2.34774165737218
O          -2.65660719329410    0.65997529275885   -0.19349782837558
H          -3.55883963215680    0.46755482162981   -0.45414024326083
O          -0.72326065467041   -0.37771278660065   -1.77522459222077
H          -1.45663913817407    0.00801024463369   -1.24918141515865
H          -0.03436214052323    0.31602998215267   -1.81384815565483
H          -0.20571356265479   -1.42839192407348   -0.86237725111956
O          -0.48799157958359    2.38565147993044    0.31240222515539
H          -1.38038083857399    2.11392472208658    0.05703436625221
H          -0.15237049759782    1.62421820354386    0.81623012278580
H           0.55702724344749    2.04087941141590   -0.91292117527564
O          -2.39097327145506   -0.51863128043733    2.17727442855885
H          -1.69659931610980   -1.20570388748811    2.21310360384302
H          -2.11786378381667    0.14671826402435    2.81291147346877
H          -2.52509324721764    0.20955023924818    0.67780184745191
N           2.83080219445137   -0.54385543547095   -0.75599666698370
H           2.25638165658345    0.28331050057712   -0.90600865566538
H           2.66324410806336   -1.18543541093905   -1.52070306586240
H           3.80407761596488   -0.26809971151269   -0.76942566679528
H           2.42307325513164   -1.24592792216672    0.52984041510335
