    26
        -50.45567462  Gyration_radius:  2.46072293328 Dipole_moment: 5.087
 S          -1.48044852830056    1.24059671242411    0.23890454463200
O          -0.75855482632451    1.69448426584708   -1.04542974879634
O          -1.24940686330790    2.40062940441719    1.21159722603086
O          -2.87999494510950    1.08336805993295   -0.01430978190837
O          -0.82430545219304    0.05923545214049    0.74308400005205
O          -0.41283751981331   -2.20961056627890   -1.57428566147572
H          -0.58128015159264   -2.62438499922157   -2.42195024181099
O           2.49536448003296   -0.27671263689439    0.65258164634281
H           3.37100372889773   -0.66595792615289    0.64051422265690
O          -2.82369959160836   -1.50653009095447   -0.69473250490816
H          -1.29563592467756   -1.91621199699222   -1.23674188432863
H          -2.95691606452691   -1.90901733411982    0.16640732483680
H          -2.93762712001535   -0.54683049597887   -0.54800187033542
O           0.66558852489527   -2.12820560177955    1.02704153836873
H           1.86649393545408   -1.00836511786592    0.89843910382612
H           0.01253194552187   -1.41749268995960    1.14811540724018
H           0.46033675992470   -2.47865628592699    0.14925671171292
O           1.06015848384927    0.05816835536359   -1.64028115128101
H          -0.00291974809121    1.04364002389223   -1.31809974853096
H           1.63391062651262    0.00523293684049   -0.84948954112687
H           0.55901054053559   -0.78553484383305   -1.65932941014159
N           1.30860833883468    2.37569672854677    1.23444151547705
H           1.61980209937741    1.40797069203474    1.17686155480367
H          -0.20914043767227    2.44033865549816    1.30664128579626
H           1.76562998068874    2.81570514344283    2.02251999175676
H           1.59432770869279    2.84844418555528    0.38624548111225
