    26
        -50.45567404  Gyration_radius:  2.46102899113 Dipole_moment: 5.097
 S          -1.18636131962614   -1.37097358092247    0.70805598281967
O          -1.10360744737481   -0.10845527186549    0.01555576307070
O          -1.73313426597886   -1.13764097693335    2.11923372338737
O          -1.96385177140197   -2.36870626471952    0.03901535408799
O           0.24346124764268   -1.89229461522978    0.95392312476899
O           0.85909961343439   -0.25758448530756   -2.59523167465727
H           1.35851006564074   -0.70446928337083   -3.28078371644264
O           1.24247117009380    2.14685669424030    0.75436737549948
H           1.85379027266540    2.88134730121452    0.68307838870022
O          -0.28958474248160    2.00825540635490   -1.37848793204783
H           0.63096486457406    2.21387482777006   -0.02858688821894
H           0.20654254071965    1.49014821945792   -2.02714710506281
H          -0.82506251048622    1.34172086209361   -0.91452361961314
O           1.92272899794790   -0.34698286918293   -0.10973678742494
H           0.95993877823942   -1.27895678440961    0.53054026184488
H           1.59061251360814   -0.31018746964073   -1.03260021923758
H           1.74226864844456    0.53647469416261    0.27014649607225
O          -1.43554111298028   -1.59859236670528   -2.47103559762878
H          -2.15261392775546   -0.97561922182495   -2.60903804904945
H           0.00765644929039   -0.75524467517055   -2.51319226189217
H          -1.61856187049050   -2.00972441521405   -1.60329254856616
N          -0.00510843643070    0.56634454607231    2.92843686063717
H           0.80740031880688    0.02814902474276    3.20178062666564
H          -0.27702440891482    1.16057566246325    3.70080840215692
H           0.25667868709025    1.15624041948070    2.14094849544413
H          -1.09167237426650   -0.41455535755041    2.51776553468036
