    26
        -50.45567416  Gyration_radius:  2.46098983351 Dipole_moment: 5.096
 S           1.72059633994633   -0.45083792535800   -0.79074957131149
O           0.80912387559565   -0.69762824694968    0.29949228036242
O           1.05750610393606    0.53489427034893   -1.77324768247595
O           2.93489934301771    0.32202619037736   -0.26823271234879
O           2.14872683320845   -1.62468775515038   -1.48813653452677
O          -2.18745577228199   -1.47964785460717   -0.74982071221735
H          -2.83152421477642   -1.76769873636128   -1.39893818376822
O          -1.06430526958402    1.73509401379998    1.60661458387696
H          -1.77049568100104    2.19496056029408    2.06283811410852
O          -0.08731793242182   -3.06149993740652   -1.15853395503000
H           0.73274173660292   -2.59094617967851   -1.40685481274629
H           0.11840626727332   -3.50373516733832   -0.33186784478881
H          -1.38499202525927   -2.03934555085417   -0.89869035181854
O          -1.28877714497764    1.05684881125796   -1.02361631871971
H           0.09097276226271    0.77250646933549   -1.49375791098357
H          -1.66726825026529    0.15500903178043   -0.94112548299893
H          -1.20314877068496    1.39086957592514   -0.10792316318313
O          -1.33710017121949   -0.86769109127457    1.86517392986228
H          -1.16843534348310    0.77017162345870    1.82894561259806
H          -1.93256608969791   -1.14304434459144    1.15452788735449
H          -0.45200451565597   -0.96989501901131    1.47472511426003
N           1.71123935623889    2.32364473187909    0.75185973508097
H           2.51494551005011    1.15596217206458    0.20223808858335
H           0.83243158854982    1.99478146914887    1.14717455669435
H           2.20707309562327    2.84977036984153    1.45971246722353
H           1.49672836900365    2.94011851906497   -0.02180712308763
