    26
        -50.45567407  Gyration_radius:  2.461010891 Dipole_moment: 5.097
 S          -0.06793294624383    1.83097412968408    0.65706388147863
O           1.06536865070679    2.75861787769877    0.20992526775641
O          -1.16279314447563    2.60160974254266    1.16199898081986
O          -0.40784713492747    0.93997785370771   -0.42502540104344
O           0.56556696221172    1.00511071463403    1.79427186579021
O          -2.10053211053767   -1.66185601076963    0.60361874029213
H          -2.63406488737931   -2.15899549108348    1.22595776289341
O           1.57657091030269   -1.59620462243276   -1.29986523716047
H           1.88368013762858   -2.42954316662992   -1.65971511007073
O          -3.09471627796413    0.80407274066032    0.70515362261890
H          -3.35296688309643    1.05832732278191   -0.18363026062078
H          -2.43668316238819   -0.73188345705132    0.64213954414666
H          -2.45668455219312    1.48742106856883    0.99052153006552
O           0.52650472739504   -1.44385194705675    1.21063161769698
H           0.98749084716971   -1.51551274629326    0.35054051074813
H           0.56723768477392   -0.00748557813388    1.58609263368762
H          -0.42532205643522   -1.57707221045162    1.01165564199815
O          -0.94639413395502   -1.19371042860703   -1.92300247871394
H           0.65683051959883   -1.45901660877919   -1.65573547982319
H          -1.46237103008232   -1.64266560582472   -1.23925447882108
H          -0.85524430776658   -0.28703519841925   -1.58258732805002
N           2.77692786515843    0.98228229035368   -0.46803665127599
H           1.80856594412594    2.10158385457781   -0.12048982461369
H           3.50352792416540    1.27031136077308   -1.11050522703076
H           3.20822263360564    0.67058601323522    0.39302380730055
H           2.27705782060143    0.19395810230708   -0.87474792006887
