    26
        -50.45567456  Gyration_radius:  2.46076236334 Dipole_moment: 5.089
 S           0.71823439413057    1.33563157221569   -1.21988311987984
O           1.54505518824748    2.46057611820171   -0.59062951354469
O           0.97846640444710    0.10360012672005   -0.51658661559187
O          -0.73871482914153    1.75970417305010   -0.94753065525824
O           0.95745225984984    1.27994110486982   -2.62958431113675
O          -0.23273827905734   -0.45917414171189    2.54287616446786
H          -0.53964089933187   -0.90787821488122    3.33206933716629
O          -1.32306972784819   -2.14899466512096   -1.07810153792900
H          -2.06030896427940   -2.53606600813692   -1.55305384547152
O          -1.90321817941585    0.01216370621267    0.44116876975499
H          -1.74394697091095   -0.79449241490396   -0.09491214049253
H          -1.35428581533257   -0.09329107259306    1.24424638238257
H          -1.24691683219371    1.06307008122952   -0.37704414651978
O           0.75593369884601   -2.18567312584234    0.82297746487412
H           0.00330980471266   -2.50702120907248    0.30754836868141
H           1.08590939682784   -1.43362942376294    0.30160777641393
H           0.21791890103317   -1.14978073405077    1.98498940289381
O           0.31712243259858   -1.29530879242691   -2.99140361964175
H          -0.70809450940067   -1.80082112508183   -1.77085416394445
H           0.48684865777550   -0.33270433811474   -2.98027964977096
H           1.17530846363767   -1.70251565160523   -2.85358372200536
N           0.69896923541917    2.25800102042864    1.81499031782938
H           1.28100713394820    2.42625801177079    0.42039708041720
H           1.28272915291421    2.65080126494907    2.54196369335825
H          -0.19874980708614    2.72533448279202    1.82996760736350
H           0.54541968961091    1.27226927485487    2.01864466559435
