    26
        -50.45489319  Gyration_radius:  2.43251351986 Dipole_moment: 9.415
 S          -0.32755895362678    1.97210286210727    0.87937546328950
O           0.45475337504968    2.10512861767787   -0.38257639944987
O          -0.77595162727551    3.20526395986286    1.41822101650170
O          -1.62726121345370    1.16148217225957    0.44991784772595
O           0.42147418342869    1.09261574862115    1.76760414527923
O           0.29452387013074   -0.84037046507676   -2.59266109283721
H           0.38896871064795   -1.11843556215851   -3.50413951785163
O           0.96536396460543   -1.97365796731058    1.43084055521285
H           1.61480899262909   -2.43240087872886    1.96497728880001
O          -1.02007048490736    1.40362162118673   -2.41893646419359
H          -1.88854851351945    1.32131962451737   -2.01557718091273
H          -0.46333147845997    1.83411852814750   -1.72693845119944
H          -0.20958207510293    0.02491705208647   -2.61479147140208
O          -0.82031603757581   -0.81642934845747    2.96022564237970
H          -0.39349495942057    0.03060795787594    2.67596508354339
H          -1.71340601043833   -0.78738844798579    2.60992386349137
H           0.31410539225184   -1.58411062497485    2.07915550687963
O          -1.15418522186460   -1.35138635740768   -0.29024601801256
H          -0.76902103832055   -1.35361982431929   -1.17959188036827
H          -0.53453324648280   -1.82917248641718    0.27535634523229
H          -1.41499608094827    0.22713021321374    0.21935844548258
N           1.75403054406051   -0.07680714611501   -0.40029997842896
H           1.47684224459410   -0.66725196684035    0.41603793950642
H           1.25073777844792    0.90017272900773   -0.32538152652545
H           2.75927403670675    0.05804201249407   -0.41449837126779
H           1.41737385882764   -0.50549202326217   -1.28132077086275
