    26
        -50.45489350  Gyration_radius:  2.43249095679 Dipole_moment: 9.419
 S          -2.05707243329049   -0.64173059617830    0.35920970696234
O          -1.71719046104246    0.87573589921055    0.69461196603913
O          -1.65326261275592   -0.84923655989065   -1.02544911559520
O          -1.12450198692756   -1.42458738148865    1.21928487727401
O          -3.42877650426718   -0.82972472376158    0.66755807845201
O           0.96069422938049    0.15428902709043   -2.43300875399029
H           1.23202499493707   -0.17075114584088   -3.29224196859807
O           2.22221923432904    0.07026260110382    1.60615745686636
H           2.98673155199237    0.09739259614071    2.18216885874630
O          -1.43985171639838    1.19633240390237   -2.56801939352577
H          -1.59814922957679    1.95215119769351   -1.99806011726319
H           0.05618210890015    0.55260928483151   -2.57207698681194
H          -1.72357845970232    0.40396562888769   -2.04638968523778
O           0.00333964635891    0.14675007333260    2.97216333024007
H           1.41964185728356    0.09390408943910    2.20487291466721
H          -0.49905289239997    0.95880503864769    2.86346260076774
H          -0.49791371419403   -0.52818245717272    2.45515128155022
O           0.70654283628304    1.65388365713359   -0.08376102459656
H          -0.82728390281295    1.13398129717707    0.35894181938411
H           1.36975107772681    1.29070850007074    0.52254711712064
H           0.95775374116217    1.36011853736094   -0.96854879367071
N           0.95178900402937   -1.50987916713628   -0.24032346972816
H           0.01301145463998   -1.53825810175771    0.33547214016277
H           1.24192747912682   -2.45548221316047   -0.46519228840662
H           0.79979178575580   -0.95774052879122   -1.11412447357635
H           1.64523293146343   -1.03531694685554    0.36559392275682
