    26
        -50.45489347  Gyration_radius:  2.43247816445 Dipole_moment: 9.422
 S           1.84684819116551    0.15570511268767   -1.15559572683520
O           0.60351830671890    0.99290160459628   -1.68844811969526
O           2.07020537947666    0.67069705730757    0.22553001184177
O           1.38603784025434   -1.22176075530896   -1.03962592056267
O           2.91970233495572    0.40524867918096   -2.04934193796620
O          -1.01815567088665    1.48815860966130    2.06422188736521
H          -1.36278050264279    2.02221894691999    2.78047849412160
O          -1.34305665819352   -2.24873949807440    0.10469328907133
H          -1.49775810459816   -3.17186864868994    0.30849518310193
O          -0.65826895663125   -1.96685210107381   -2.40897953982494
H          -0.97275291935956   -1.16745732229095   -2.83707444858987
H           0.23886859979679   -1.74485453230369   -2.05368880163868
H          -1.11142879728552   -2.22479714381715   -0.86582096609778
O           0.66499668824842    2.83833313285525    0.60177051777177
H          -0.37965043245968    2.07326114028217    1.56102915547396
H           1.34054479162220    2.12887804749847    0.48184820595378
H           0.35151087127607    3.02793949254367   -0.28675737189481
O          -1.68235373999308    0.47826747956874   -0.42588383115323
H          -1.84888833601788   -0.45845024554423   -0.26076198504429
H          -1.67060039517627    0.90994326753043    0.44176318511427
H          -0.22884537027158    0.74696137415022   -1.22140057778431
N           0.46058900526223   -0.76646272278058    1.56385330742871
H           1.21625199888524   -0.21859533681140    0.97819754602343
H          -0.07811666275528   -1.39285369354780    0.92453732337761
H           0.91853197857237   -1.30913539737518    2.28820636920458
H          -0.16494941994567   -0.04668651715443    1.96875472123243
