    26
        -50.45489345  Gyration_radius:  2.43241067927 Dipole_moment: 9.420
 S          -0.09795458921247    2.18160859980790   -0.02446864378170
O           1.31890358522512    1.73809058476813   -0.15918213941885
O          -0.85860810125622    1.42233280822327   -1.19736048288491
O          -0.61437333549771    1.62406805778480    1.21889438275287
O          -0.29623646957188    3.56921147561556   -0.24191484778157
O          -1.18396699089408   -1.38382558865887    1.88389811752540
H          -1.35490704943044   -1.68347829305689    2.77756673845732
O           1.72637262627147   -1.78532582278344   -1.16295170347610
H           2.33665088936006   -2.39406982270726   -1.58008842841157
O          -2.90880301816975    0.46467284915009    1.19497201519192
H          -1.88975254355819   -0.70508670462895    1.69043764461367
H          -2.14001843852606    1.08617946608871    1.25070922536663
H          -3.17464520510674    0.46280671661138    0.27273040486660
O          -0.97124501193170   -1.22065569951992   -0.90165203152034
H          -0.10646386518384   -1.60297188579754   -1.11421190020881
H          -1.18662859702954   -1.51598973250271   -0.00792285619212
H          -0.91043538395981    0.45202700546901   -1.03229312269109
O           1.64718011112702    0.49168384639021   -2.42907348727435
H           0.81347583569119    0.66678820032016   -2.87404063086336
H           1.63898125386900    1.08554733986058   -1.64079794967824
H           1.76135030232500   -0.94128941058752   -1.70119650607019
N           1.29603823135334   -0.42181278089075    1.17651364886745
H           0.32900024844219   -0.62426095408031    1.51633079310848
H           1.57143162628724   -1.11010089947154    0.45271103764320
H           1.30469400485273    0.56159477626891    0.68044271916523
H           1.94995988451697   -0.41774413167073    1.95194803268704
