    26
        -50.45489344  Gyration_radius:  2.43243596731 Dipole_moment: 9.431
 S          -0.31743230540760    1.77287111477579    1.23652058117452
O           1.03753728317100    1.20853036221205    1.49757192380183
O          -1.28971947622222    0.72626443209494    1.52408169909826
O          -0.54186742040532    3.04306402162919    1.82664329852948
O          -0.35419154104835    1.98853732069195   -0.33899822468150
O          -1.76552702920379   -1.93034173190007   -0.07216575717981
H          -2.30259395032784   -2.64989675731966    0.26181688044657
O           2.25815719855658   -1.11615375419812   -1.08842435374458
H           3.05566586696686   -1.48828833348364   -1.46591065587363
O          -3.16160760031153    0.28405387853736   -0.18126989631260
H          -2.37015654077210   -1.13671183408040   -0.10241688381036
H          -2.58207781158066    0.58969924474955    0.56123184781811
H          -2.96368678488388    0.86376986537424   -0.92015425043871
O           2.52590207917033    1.43686730019038   -0.63474650367234
H           2.44680714826700   -0.14408491823873   -0.93817061699562
H           1.98368951014431    1.99683496802674   -1.19698966300065
H           2.08362447274592    1.46523474964528    0.24709012131099
O          -0.28917534218397   -0.26175893488092   -1.75803895086622
H          -0.86513541775541   -0.96020060551039   -1.42156489827509
H          -0.36491000312669    1.13193514772541   -0.82661644321494
H           0.61019388437739   -0.62259841018969   -1.74949001159494
N           0.63066897066329   -1.26818092562235    1.11321012128964
H           1.28833442959223   -1.46349825006913    0.33692055409589
H           0.76251922741500   -0.20307415526221    1.36323897801631
H          -0.35309957795934   -1.42565598682927    0.79973322593359
H           0.83808074010700   -1.83721780805091    1.92689786816484
