    26
        -50.45731623  Gyration_radius:  2.4443802144 Dipole_moment: 6.857
 S          -0.50574573946662    1.26610915575079    1.46439704819104
O          -0.00331456224409    1.29314743929761    0.06683525707804
O          -1.08436460265255   -0.02802938323998    1.78051916557037
O           0.55810149525310    1.64865785797321    2.36653757261239
O          -1.63561588295098    2.33834304967778    1.52204337813646
O          -1.83344017683889   -1.15055721442194   -1.87223435461338
H          -2.25061142651354   -1.49770924814774   -2.66137863031613
O           2.23522758020036   -1.50585423071212   -0.21389888169250
H           2.72010044435524   -2.30116044591890    0.01044966801173
O          -3.02236141977640    0.58446601903359    0.05644764312653
H          -2.59891414845684    0.08882060969601    0.77473154470789
H          -2.31182743584571    1.97086113045707    0.91711245083126
H          -2.71966883953261    0.13759377362369   -0.74934921964657
O          -0.24445990820719   -2.02532839328873    0.28527063150275
H          -0.54403948553994   -1.35798991858531    0.94013619509194
H          -0.84969073160297   -1.91371766834692   -0.46507110516888
H           1.26951665999099   -1.71774444167710   -0.01532461177879
O           0.55106855267942   -0.01140176932995   -2.20956588756900
H          -0.99743563180843   -0.71215885076011   -2.15599965135387
H           0.29176662379764    0.57343996287669   -1.47330917440156
H           1.21836786701757   -0.60347243395924   -1.84473279446696
N           2.41707364916261    0.98600375061225    0.69656241760997
H           2.54880069910305   -0.03135423285298    0.47104698893031
H           1.49898395619174    1.25850708829483    0.19311154538356
H           2.07626855934968    1.15279727610956    1.66891203873011
H           3.21621391433899    1.55773111783587    0.44675078549173
