    26
        -50.45426019  Gyration_radius:  2.48276018964 Dipole_moment: 9.491
 S          -1.58028475008802   -0.81191585348449   -1.16487857774951
O          -0.29467571764658   -1.38037523261609   -1.67987969119044
O          -1.50209030754171    0.72149389195155   -1.53360372754326
O          -2.73058887723296   -1.36445129796931   -1.78900958994531
O          -1.53085985587703   -0.88588983109516    0.29060664958091
O           0.18501149443681    0.14399168099126    2.56714844575259
H           0.45910383618926    0.61226347856711    3.35680871257835
O           2.43115899542349    0.98834966164811   -0.82510653003722
H           3.28511704823700    1.34323373556102   -1.07374836976074
O           0.96457449225345    0.54829363443465   -2.93036566388268
H           0.25706979457952    1.19352962289216   -3.02254223683617
H           1.92364541648785    0.85458295805418   -1.67984279562810
H           0.50534036495399   -0.26737984883223   -2.61856694543946
O          -2.42801094658180   -0.26712757586304    2.63662587555684
H          -2.83449711447817   -1.06183134414365    2.98616208550660
H          -0.78623222238675   -0.02518541482086    2.66558867360033
H          -2.29797878913137   -0.44047657085684    1.67545006658763
O           0.01018349809723    1.80227323429773    0.32744088448994
H          -1.01253419188335    1.16599341949701   -0.79782634031560
H          -0.04606040520859    1.26639997971218    1.13714748883560
H           0.91745424773318    1.71414272775517    0.00039582412792
N           1.24240067759432   -1.18099835839101    0.31843563079967
H           1.89511912653740   -0.43337098912364    0.01769672977308
H           0.69020613733314   -0.85411379009576    1.12672685807488
H           0.54248982873334   -1.34275669187601   -0.53314156307972
H           1.73493819946535   -2.03867521619546    0.54227810614209
