    26
        -50.45731611  Gyration_radius:  2.44443626839 Dipole_moment: 6.859
 S          -0.21498962030065    1.69129264025844    1.04725856727178
O           1.00578519014117    2.29054096554756    1.53984246190502
O          -0.01640883839165    1.24516553365626   -0.35552200508503
O          -0.68805464495040    0.59590751147842    1.87550377825828
O          -1.32983815417898    2.77885548783497    0.98533116698499
O          -2.15876984353446   -1.59845572786276   -0.98503532615348
H          -2.71874574881399   -2.16859981782444   -1.51279270895190
O           2.17207242168619   -1.60182603579841   -0.16627974396959
H           2.70947604076352   -2.30425842390022    0.20209210148612
O          -2.95672696600292    0.71804257512654    0.48188306560997
H          -2.82062612030592    0.02400949598846   -0.18157098587117
H          -2.38122660245368    0.45771873615379    1.21808409503769
H          -2.11033554422149    2.27055819701748    0.68425462137690
O          -0.13871792700685   -1.81261876240496    0.96626887972793
H          -0.30821041608126   -0.95738583345009    1.41772871124802
H          -0.88914272356602   -1.91607303682875    0.35943123413966
H           1.27294401219229   -1.69179531866881    0.28163777908016
O           0.07875026903442   -0.74390593408771   -2.15191536038529
H          -1.41049692375815   -1.31450874326243   -1.56041204161830
H          -0.03354508058132    0.05747098021145   -1.60736729462089
H           0.81900968505808   -1.22009642910394   -1.75929263467267
N           2.48795463503882    1.03846371678429   -0.16841193967925
H           2.59017878197395   -0.00279780708502   -0.07475042664367
H           1.47975333863999    1.17975497754030   -0.53446498327769
H           2.35431861930119    1.52424512971290    0.74568778119665
H           3.20559214031789    1.46029594296718   -0.74718879239349
