    26
        -50.45426016  Gyration_radius:  2.48283059235 Dipole_moment: 9.492
 S           1.51057368156109    1.47989161974355    0.20502998782400
O           1.07234442088969    0.94687314543718   -1.07952195271684
O           2.49986113556759    2.49857255884264    0.16456617503702
O           0.22167298713543    2.06516535665128    0.90476167324699
O           1.89543685618346    0.31245852716480    1.05950059193334
O          -1.04524150023362   -0.93063006679593   -2.16486111064458
H          -1.80556203819879   -1.25871871237585   -2.64677565061329
O          -1.20017303569229   -1.53379363922448    1.94327156563897
H          -1.64216566943852   -2.08336776943255    2.59105102281092
O          -1.75312172249992    0.51726179811823    0.11564643450664
H          -0.54894273542671    1.55450835482113    0.55264228052547
H          -1.52607351004198    0.12182518166647   -0.74342024778607
H          -1.77883968561011   -0.20888781708180    0.75587740086722
O           0.26343162804492    0.27554823966402    3.10992327630859
H           1.00967007415017    0.29579781033703    2.46479612774955
H          -0.12385419489151    1.15380586206141    3.04643646081399
H          -0.66792690172241   -0.86099061280025    2.46285657519207
O          -0.07009517116852    1.20473872686255   -3.38606344670145
H           0.38167648174456    1.33645467884901   -2.52044070855289
H           0.63216778184005    1.17260651680426   -4.03777246305800
H          -0.69249781692261   -0.16587737563902   -2.68674561092490
N           0.67032963355909   -1.60897507212649   -0.03714738224764
H           1.25758888834702   -2.41404394877619   -0.22502707441438
H           0.23060209907339   -1.26586396960176   -0.90546878085817
H          -0.06386671456140   -1.82694474114169    0.66208048188870
H           1.27300501831295   -0.77741464202814    0.39480436417542
