    26
        -50.45426026  Gyration_radius:  2.48268125352 Dipole_moment: 9.494
 S          -1.72077955577725   -0.36804089391246   -1.19106118622224
O          -2.18731689082239    0.07642649600912    0.16023317487224
O          -2.77851425601522   -0.54032018434383   -2.12353929884620
O          -0.64130330154403    0.52763938159027   -1.58968482180830
O          -1.05466953262535   -1.77540106365528   -0.92842111145126
O           0.48400293763342   -0.71035015069344    2.61310744803394
H           0.69130422735558   -0.94385062643490    3.51837306133572
O           2.09222386150200    1.38371967513295   -0.59525622903632
H           3.03925514885343    1.52206036498995   -0.55047656575306
O           1.34255883049213    1.16346426844172   -3.12296313978295
H           1.04262493020629    1.90068848590048   -3.65725261972028
H           1.85928451306458    1.35625607383568   -1.55789969716227
H           0.52816159330163    0.78629209378812   -2.71626485943089
O           1.34701863656862   -1.24042891670987    0.00109009772793
H           1.63019443888118   -0.36896304936552   -0.32485111960351
H           1.23519816610866   -1.15409057776424    0.95919916012608
H          -0.11765862467115   -1.60150359786591   -0.66289561563195
O          -1.70622095217879   -1.88210208758017    1.83400247101346
H          -2.06035350729483   -1.16067562415720    1.26166321399522
H          -1.53486141556521   -2.60344524241505    1.22109114948643
H          -0.35936717272524   -1.20191023122465    2.38287502624469
N          -0.20993471949792    1.39394513023592    1.02626397446745
H           0.15231276498081    0.77604082931083    1.77615749493047
H          -0.45494986083017    2.31066361739438    1.38394134161197
H           0.49038723534057    1.47042556779954    0.27204464445157
H          -1.10859749473996    0.88346025169187    0.61052400615242
