    26
        -50.45426024  Gyration_radius:  2.48261461394 Dipole_moment: 9.493
 S          -2.01269293184986   -0.55091815379886   -0.39866650820306
O          -1.63700988202391    0.63354006582529    0.36443246931153
O          -3.40421965223219   -0.80186749424043   -0.53527593611092
O          -1.29090914481091   -0.47981978171736   -1.70827133972232
O          -1.35513075903691   -1.78137574018528    0.34088622030886
O           0.86924786590984    1.92731502289335    1.47462616338887
H           1.51157198764392    2.28026937548454    2.09172542644543
O           2.32097892260366   -1.02856711288471   -1.05953826989348
H           3.15008615072034   -1.36270057667527   -1.40295159110187
O           0.89476720506283   -0.86166178713789    1.34655369229339
H           1.55243255320851   -0.97703692679283    0.64506360848374
H           0.81225740351904    0.09608509573490    1.49432966015920
H          -0.55120143601288   -1.43817771064469    0.80411190710778
O           0.33491608898146   -2.53264572232976   -1.81433957120400
H          -0.00843338575052   -3.06984964653766   -1.09396833945105
H          -0.34448053892621   -1.82675534384958   -1.93121138549132
H           1.61003282911820   -1.65873793765539   -1.38130489909154
O          -1.54097897062140    1.99026328186378    2.56424911776607
H          -0.01579180332344    2.01733034549220    1.91098261188427
H          -2.15632357747783    2.71750268011724    2.45758758829231
H          -1.74846778006880    1.36213711121568    1.83389513830643
N           0.62143249427763    1.09669497052382   -1.20466495035820
H           0.49611362798376    1.47168524465949   -0.25131497735581
H          -0.26638401076342    0.46847760202096   -1.44621587045731
H           0.71867356138039    1.84917168529213   -1.87742979944742
H           1.43951317248926    0.45964146332475   -1.22329016585952
