    26
        -50.45426019  Gyration_radius:  2.48274541996 Dipole_moment: 9.493
 S          -0.66814183485853    2.01631529771509    0.03455673356388
O           0.65515930138371    1.61289631098063   -0.42635936535104
O          -0.97418939057101    3.40094273784025   -0.05047626264123
O          -1.70684916198012    1.22166286322661   -0.85032911746460
O          -0.84799713010322    1.45198183278987    1.40947100964941
O          -1.16789806024562   -2.23269986907348    1.10427588526644
H          -1.54507627925999   -3.03250461150705    1.47174987439322
O           2.20729021419592   -0.93813086483006   -0.94445598656725
H           2.69146023528210   -1.62947580698509   -1.39783873844107
O          -0.54815660092937   -1.08079257064653   -1.37383090831831
H           0.41731921866347   -0.96940392025481   -1.33608926800767
H          -0.78836176205909   -1.65984800896094   -0.63568127024331
H          -1.25768413959247    0.38763416558927   -1.13544119596269
O          -2.84029902558710   -0.24734814207066    1.29982588275777
H          -2.18916269634506    0.47366939599656    1.47189849380935
H          -3.22857990561438   -0.01350152678476    0.45134427809676
H          -1.86693139590886   -1.52067670484947    1.20616323741800
O           2.43645353445920    1.33400234885681   -2.28116125477044
H           1.66719003104697    1.59254522121859   -1.72243103096661
H           3.11178421160636    1.99111981270808   -2.10486707671858
H           2.36417054957559   -0.10489006254418   -1.45701456123862
N           0.84230802340802   -0.42828633037913    1.46516892910736
H           0.23432655578939   -1.26834608294701    1.45458373923700
H           1.40076796282648   -0.39407103403294    0.59793037957318
H           0.15728220192132    0.45032152355996    1.46759818387298
H           1.44381532289450   -0.41311598461473    2.28140939994448
