    26
        -50.45731614  Gyration_radius:  2.44443528176 Dipole_moment: 6.857
 S          -0.10338737458612    1.89514070712248    0.63306716449986
O          -0.26959873924539    1.90321785301431   -0.80980111600728
O           1.14365251381933    2.48678935505182    1.06525596451242
O          -1.28980671802020    2.68026294317122    1.26988543770549
O          -0.20775749266851    0.51374147946324    1.16903481908014
O          -2.18616165648447   -1.47332776713841   -1.11230315858452
H          -2.80568482880892   -2.16118679768401   -1.35769971977089
O           2.20005658669426   -1.42401259530446   -0.66833905559157
H           2.86859297584969   -1.65399360615392   -1.31493607177478
O          -2.80685033226790    1.21370189445633   -0.37176370295342
H          -2.77328668668621    0.25082063836432   -0.48209662744613
H          -2.07297912948755    2.23328536925746    0.88906981413606
H          -2.05280930925621    1.53759193980091   -0.88890976521384
O          -0.37353442044923   -2.12647137347723    0.72792041103485
H          -1.62410719297735   -1.83484748023123   -0.38780428783040
H           0.47709306209192   -2.22443487585227    0.28554867936102
H          -0.42094434059545   -1.19006585817668    0.99665302239931
O           0.25256418942136   -0.38265930593441   -2.00631032901588
H          -0.60921787076028   -0.81264058774004   -1.88602893847093
H           0.12266136123020    0.52396640929216   -1.65257564834425
H           1.44466100916410   -1.01839564095633   -1.19931099498258
N           2.27677141983395    0.19353697475762    1.44061185778923
H           2.48792240908382   -0.40385185029337    0.60269012898135
H           2.79550994769085   -0.07991802145817    2.26767568095988
H           2.32487392352583    1.21679650854170    1.24101668699454
H           1.20176667388686    0.13695368810078    1.54944973853160
