    26
        -50.45426015  Gyration_radius:  2.48282291207 Dipole_moment: 9.492
 S          -0.21681898662234    0.51866136586678    2.04874341234491
O          -0.92627794580032    1.19097109116523    0.96666195033787
O           1.24223023687392    0.56655384079330    1.71699985110691
O          -0.50925605359092    0.95799284618407    3.36767270738169
O          -0.58989314952852   -1.01175921522043    1.93954346880993
O          -1.29113260365202    0.92526529165515   -2.03012216598247
H          -1.70157605844574    0.79207148423280   -2.88556769882782
O           1.83561081022221   -1.67584745932948   -1.17980758435535
H           2.45540496073410   -2.25355123448750   -1.62602783313482
O          -3.09401554157518    1.80500544607653   -0.30456550816905
H          -1.99318953264074    1.29747419601867   -1.43835213643659
H          -2.41488962734514    1.52651307297446    0.35266981988001
H          -3.25440274429100    2.73339223175414   -0.12747726649980
O           2.05221903987673   -1.90626720563180    1.40418379321423
H           1.31380373237063   -2.38694626792853    1.79026495925263
H           1.97046627192924   -1.82539957066418   -0.19729897309973
H           1.87951840981809   -0.96597366715811    1.64809201798966
O          -0.90434435671713   -1.46137604625891   -0.63279099347938
H          -0.80119301695129   -1.18502132305733    0.98878707189612
H          -1.15878408989871   -0.63263335495656   -1.07367223487696
H          -0.02232143802884   -1.68955600167883   -0.96115143294439
N           1.23328894684899    0.95209257721343   -0.78237995503107
H           0.25966353515770    1.10666790220692   -1.08773090742263
H           1.57112383920731    0.04105762659634   -1.14477674808522
H           1.82945464812156    1.71645223381035   -1.08012513542126
H           1.23531071392903    0.86416010982179    0.32822749155317
