    26
        -50.45426021  Gyration_radius:  2.48273896892 Dipole_moment: 9.495
 S          -0.93639967547136    0.71680179590626    1.76677803284274
O          -0.71728452896662    1.88676059613019    0.85886501471042
O          -2.01652666303334   -0.15867879127006    1.01833482617493
O           0.29494919939352   -0.06426494861360    1.76666225290498
O          -1.45672514883922    1.07971763397425    3.03782399793703
O          -0.54439106739092    0.62056810575380   -2.62442686481794
H          -0.70630313748020    0.80871095442316   -3.54931656516656
O           2.05351847042532   -1.54386286806064   -0.20874541090348
H           2.52231510388681   -2.25092689034019   -0.65402303819396
O          -2.40782644283323    1.65650542024259   -1.13058603222884
H          -3.00625288269906    0.98963417119041   -0.78051040167284
H          -1.84955966296502    1.90701533617587   -0.35658984965978
H          -1.30108018229343    1.03948153771247   -2.11656469505096
O          -0.67479881452318   -1.50323321242148   -0.80117824037552
H          -1.52352518399528   -0.74093403708193    0.38862554416900
H          -0.65418482499333   -0.92691413515617   -1.57921733191436
H           0.24681863576607   -1.60675211125282   -0.50821518881619
O           1.63661661332982   -2.20524845579601    2.31937421124620
H           0.98213718507413   -1.47023476098735    2.27090934773203
H           1.96556835857662   -1.82028957655326    0.73862263184296
H           2.22889817014169   -1.97239965566701    3.03625704997163
N           1.20370867816470    1.11321716363276   -0.59275836252638
H           0.41344881318052    1.48302896993868    0.09995728971310
H           0.74121300663028    0.97460065055350   -1.51054485269892
H           1.96386236158782    1.78150775869062   -0.65478552576187
H           1.54180360932848    0.20618932887661   -0.23474785945671
