    26
        -50.45426025  Gyration_radius:  2.48263628706 Dipole_moment: 9.494
 S           0.92374620789421    0.11878112453105   -1.90950451081619
O          -0.16361232030527    1.14673207700950   -1.86369886245107
O           1.69760750040475    0.16997138210429   -3.09967359086040
O           1.65673871739269    0.21164483656020   -0.65235695157313
O           0.15591862496224   -1.26055234900747   -1.87399109158063
O          -2.67564182761567    0.04980810138480    0.63736593192329
H          -3.59701541347812    0.06007498444948    0.89810052735016
O           1.12258059239114   -0.05072033474007    2.32003037262936
H           1.15466630709883   -0.36762086117529    3.22363814211964
O          -2.44933261593963   -0.13271775640712   -1.94955879360323
H          -2.15536960050945   -1.00528548242431   -2.22819272460986
H          -2.66819166897807   -0.03070177032114   -0.36236890816741
H          -1.65192962795943    0.43667551235080   -2.06534512470358
O          -0.44861653912804   -1.65039132384308    0.65615006565902
H          -1.30275021435484   -1.21206761570112    0.78361853318376
H          -0.00328452995287   -1.47306692973581   -0.92102559065140
H           0.19166346414301   -1.17799109244712    1.21548799139920
O           3.35773577737664   -0.70769502205627    1.06565014212521
H           1.99619767924466   -0.27977618743965    1.91262612962481
H           2.82079241230056   -0.49847030620375    0.26638934890959
H           4.12706579416685   -0.13832056447535    1.01218628848898
N          -0.41862488325484    1.57694404334904    0.61534000040022
H           0.32162336942380    1.06119009141993    1.11651815715510
H          -0.40294782815086    2.56015552089942    0.86307689044623
H          -0.24863512454348    1.44647125611112   -0.47796251605920
H          -1.34038426262886    1.14692866580443    0.81750018366111
