    26
        -50.45426019  Gyration_radius:  2.48279406742 Dipole_moment: 9.494
 S           0.91178657344445   -1.67422599804178    0.93715507451862
O           1.64657980759108   -2.78426800929909    1.43311627680789
O          -0.40321386393969   -2.21468388219491    0.25008341502213
O           0.41557744929107   -0.76134866251137    2.01491343234728
O           1.58069179908519   -0.84275812469844   -0.05657408500201
O          -2.36819460916407    1.25660696174740    0.61876296456220
H          -3.18717639358691    1.71795581718357    0.80161987519106
O           0.92954884809189    1.47205755468288   -1.90094626832810
H           0.79416980839814    1.98736936441395   -2.69724881349933
O           2.64333858028325   -0.48471479200526   -2.38746981612859
H           2.27587893826340   -0.84400474807537   -1.54683399109131
H           1.61011961251317    0.78734182927237   -2.12377527851465
H           3.58840604231425   -0.41415960188790   -2.24303080454652
O          -2.20018813053206   -0.92401927566004    2.03076704884516
H          -2.37911211804174    0.43023873040600    1.18698450124327
H          -2.33349867404769   -1.71372014727556    1.49786436518730
H          -1.22842468100817   -0.91139951060759    2.20097199815300
O          -1.16721993178783   -0.29717491977489   -1.38023689113204
H          -0.66048443553239   -1.54832299754996   -0.43427446641398
H          -1.72805050458878    0.28317229072387   -0.84492312794363
H          -0.39222633738966    0.22949616815625   -1.64101699034557
N           0.33755519013194    1.48303761472248    0.85213653850701
H           0.79701206894573    2.22616684218018    1.36687416067084
H           0.74945253503672    1.38021245367356   -0.08855177846292
H           0.45019700050770    0.51086763332869    1.38457431317928
H          -0.68252456427940    1.65027739909106    0.76905835717449
