    26
        -50.45426028  Gyration_radius:  2.48269890968 Dipole_moment: 9.494
 S          -0.27848938856756    1.92752295438097   -0.84893578657930
O          -0.43654713081399    0.89515110611758   -2.03322503622166
O          -1.07831133948421    1.40964821760608    0.25489376842787
O           1.15860712074002    1.80916609332764   -0.44664184017771
O          -0.62403616349924    3.21838101726682   -1.33095854901344
O          -1.41473273673375   -1.17145808069162    1.80879713710852
H          -1.80564635244345   -1.96520529784002    2.17637401807079
O           2.04606908922568   -1.79367267546661   -0.40559580759191
H           2.73785440004135   -2.44519785358290   -0.52371754723178
O          -3.31565886760256    0.58422134864549    1.25642293357589
H          -2.60102099097954    0.99803993208852    0.71884948068357
H          -2.15957998917621   -0.53400924181569    1.66546175829421
H          -3.60534037644508    1.26669111967581    1.86406437755016
O          -0.69494414125575   -1.45199842434243   -0.87448833548851
H           0.20932575543811   -1.77837947887684   -0.75739829189767
H          -1.06361080174869   -1.33043153427400    0.01724064715147
H          -0.62544110391902    0.01593724887229   -1.62095869463337
O           2.30218885307412    0.14808004416433   -2.12048268708120
H           2.20395983896367   -1.08799829706474   -1.10063508002106
H           1.63821301981603    0.10933991791043   -2.81548042786957
H           2.00210731730151    0.89044055422273   -1.54401240068580
N           1.08613552527169    0.04409113980277    1.36304144453234
H           1.54578559464383   -0.76198074686631    0.90004354250745
H           1.10482772702523    0.87809953430055    0.62458773701682
H           0.09920911645678   -0.18554484774226    1.55894303891994
H           1.56907603467169    0.31106625018035    2.21381062065444
