    26
        -50.45426025  Gyration_radius:  2.48274367391 Dipole_moment: 9.493
 S          -1.95511850132327    0.30754749964404    0.77271340455718
O          -3.30997025514131    0.36583169521577    1.19587711835668
O          -1.66178887197570   -0.57457173579279   -0.35073137162854
O          -1.37787913210904    1.64903001413206    0.44352329724384
O          -1.07795582504014   -0.20676192672129    1.98077830840657
O           0.75478289931695   -1.64464653462839   -1.83622515058525
H           1.40439885893926   -2.25087411920299   -2.19467112255999
O           2.32038178879232    1.36740813592684    0.56018611498925
H           3.14859919260463    1.81629132715953    0.73215836544910
O           0.47874623685424    2.15655537350513    2.22219201025708
H           1.66796962083474    1.71318266620458    1.23901681350241
H          -0.29321677349153    2.12376276007177    1.60858457693425
H           0.27770094943469    1.48989365775467    2.88590580404031
O           1.12239629740439   -1.14425147054836    0.88619828208151
H          -0.28323628640599   -0.64604727329216    1.58823423949679
H           0.93255705091529   -1.42446380276176   -0.02558721089754
H           1.71874716651012   -0.38379296415559    0.82310762232105
O          -1.52782094291786   -2.92037511572083   -1.43249515323041
H          -0.08825787092806   -2.15792973186876   -1.74960069096007
H          -1.72292531933844   -2.13205608686722   -0.87446523822643
H          -2.23842302252732   -2.96008340707340   -2.07470319286239
N           0.35738766710391    1.09315359432885   -1.31023478079895
H           0.29263851470782    1.66534313530421   -2.14493651167000
H          -0.46200481191779    1.34511344286413   -0.59878037757396
H           0.27774953660581    0.09152067656079   -1.54583071742886
H           1.24454184309491    1.26122019995997   -0.80021442921481
