    26
        -50.45426022  Gyration_radius:  2.48271775664 Dipole_moment: 9.492
 S          -0.54487042762849    1.57077193786039    1.32266468341292
O          -0.98337708564464    1.49738233870128   -0.06607229623892
O          -1.01985039163793    0.23025444811460    2.00880024410364
O           0.94901368099466    1.47363997260048    1.31981327983056
O          -1.03689081857176    2.66319403440644    2.08585963996647
O          -0.81216482266626   -0.41607362724323   -2.41114327037140
H          -1.06703888141265   -1.01771031740631   -3.11189063019840
O           1.87207058813874   -1.98581904448872    0.34531345506122
H           2.51193381700513   -2.69320703018825    0.42987749631358
O          -0.89323166501473   -1.59499899299755    0.11897515536933
H          -0.99073282478472   -1.16571276795220   -0.74824833888482
H           0.01166251940284   -1.93794143533350    0.15715817427998
H          -1.06691773406487   -0.45308281446700    1.29503210255469
O          -2.82085859553793    1.21696028655033   -1.86454983488603
H          -1.57736091799067    0.19952063593473   -2.27972148230250
H          -2.29946785312098    1.37860227188341   -1.04419386355820
H          -2.93351731994806    2.07874112576616   -2.26890841909972
O           1.58978322120504   -0.72017456541150    2.60247719290169
H           1.81065580411297   -1.55397783720759    1.24853736813704
H           1.45599284715641    0.18876616384309    2.24270642490848
H           0.75435271140071   -0.92604961879347    3.03267851323059
N           1.43224143144503    0.39058270778004   -0.91384015678637
H           1.75224498244434   -0.55492165684146   -0.63265300728306
H           0.54816408953038    0.31442744350241   -1.44088286027462
H           1.22243953502170    0.94098057035537    0.03187849051463
H           2.13572410016722    0.87584577103213   -1.45966807070124
