    26
        -50.45731609  Gyration_radius:  2.44443090284 Dipole_moment: 6.857
 S          -0.54693482047329    1.34414102054966    1.37721140344916
O          -1.48147546937769    2.58575208954838    1.25648424045224
O          -1.37330596037196    0.16387498118297    1.56064226337543
O           0.19231437316371    1.27644748070036    0.09062880989692
O           0.38831285150460    1.55747252687110    2.45972945975898
O          -1.63268832494505   -0.85395625744285   -2.18878833762069
H          -1.95135419761408   -1.14662051788647   -3.04316503907896
O           1.96601859113917   -1.85081727576253    0.15509811122870
H           2.26753576166306   -2.71106888420936    0.44996197196079
O          -2.85268029974396    1.06737133336987   -0.46414969620479
H          -2.09113125844649    2.32733575588028    0.53552675471358
H          -2.48768586779936    0.57190050539012   -1.21363326914676
H          -2.64761052183990    0.51534861313180    0.30667344407625
O          -0.61369988334201   -1.95485083471127    0.19572154101957
H          -0.91329145845816   -1.24269968146614    0.80159015708575
H          -1.04970310746947   -1.75154855573019   -0.64723267222032
H           0.95895602913170   -1.90071001529096    0.17457661507910
O           0.92614905997813   -0.11983090713082   -2.07827271841707
H           1.41347268032094   -0.80943541852590   -1.61370811153614
H          -0.70041487936782   -0.55901007642153   -2.31302034916963
H           0.63750012471773    0.50543599366187   -1.38757412844412
N           2.38201580534005    0.58778464359361    1.12999478477302
H           2.38592244557447   -0.43968023602249    0.91128968298404
H           3.29411307783310    1.02030983529163    1.03542296230328
H           1.62319080870182    1.00047957825435    0.47853801675515
H           1.90647441018023    0.81657428317607    2.03045410292591
