    26
        -50.45444100  Gyration_radius:  2.5539874544 Dipole_moment: 4.675
 S           0.09064700301891    1.39217892999076   -0.26097372321037
O           0.98075396199452    0.73787020522916    0.79092319202928
O          -1.29517687168471    1.15562035022268    0.02672226879453
O           0.40210504501877    2.88432511643755   -0.08812123929467
O           0.50844473313620    0.95591478153743   -1.57467903155234
O          -1.23523469451789   -2.37699042158627   -0.73738453577840
H          -1.26448248484152   -3.19892964814999   -1.22921282355274
O          -0.26927084111269   -1.65476480862896    3.06053821161452
H           0.00013071175420   -0.86223799030373    3.52747322355098
O           0.93714196075846   -1.73135959428949    0.73066682819431
H           0.19568638386039   -2.00538294399824    0.14653421930871
H           0.99884047236527   -0.34417976107363    0.72548001796060
H           0.60184956991065   -1.87015194123085    1.65713083689665
O          -2.27638426385517   -0.95797536978670    1.46224034973893
H          -1.11969934225141   -1.43135518401138    2.60992691200894
H          -2.03639090622690   -0.10749205362649    1.05821416613716
H          -2.15767055720820   -1.61316950526779    0.76036826351488
O          -1.71175030698068   -0.32711059380801   -2.31483334835677
H          -1.42887880909309   -1.65079813631579   -1.38759451424136
H          -2.28389392118845    0.21613000181218   -1.76277484404432
H          -0.84230308944554    0.11322715980418   -2.26038733443028
N           2.76974259537811    2.56231237855968   -1.01689480217356
H           3.29990062377385    3.19014392625138   -1.60673567269800
H           3.38976574396563    2.14995681361450   -0.33246164414829
H           1.37353355901873    2.95591752181713   -0.40003355771294
H           2.37259369445867    1.81830076678232   -1.58413142856907
