    26
        -50.45444071  Gyration_radius:  2.55193847251 Dipole_moment: 4.679
 S           0.71162742400381   -1.18872554166383   -0.31584694836183
O          -0.34251269601414   -1.61975865230554    0.55717222848949
O           0.28282712323087   -0.88883546236776   -1.66378245688253
O           1.43014446265319    0.02595758997381    0.26281021169422
O           1.81626571765890   -2.25264865022842   -0.34894878981008
O          -2.49059613996988    1.23153070890088   -0.04084101120425
H          -3.14460959423145    1.80498695732321   -0.44304500224172
O           0.10157612276257    1.91668343050180    2.90854037402088
H           0.91286715973271    1.48239026986804    3.17671549753648
O          -1.64498980543068   -0.00719820000713    2.34420190902706
H          -1.16858172824461   -0.69421395621606    1.84896952999965
H          -0.58852584810445    1.21048670718987    2.87485584805610
H          -2.18357400013509    0.45211525864819    1.68475930324107
O          -2.35647048375834   -1.06703964713787   -1.31165338689775
H          -1.44706663549903   -0.99513923690342   -1.65903510313837
H          -2.27947516596727   -1.69162633933063   -0.58280466077028
H          -2.49766260355705    0.38516748499105   -0.56169213701195
O           0.05200850042402    2.07551752521619    0.28949824018412
H          -0.87757085771992    1.81485403667783    0.10418364027842
H           0.08702313517431    2.22884385452026    1.27201925095916
H           0.83880378403402    0.93404367058090    0.22206694947094
N           3.05734715044281   -0.99602856495422   -2.20671560478578
H           2.14026191430678   -0.68765232907165   -2.51790012528288
H           3.56150987984232   -0.19649543748964   -1.84692097461316
H           2.46216746213622   -1.89419743098290   -1.05674365930608
H           3.56720572226605   -1.38301807570977   -2.98986310266123
