    26
        -50.45444089  Gyration_radius:  2.55246933894 Dipole_moment: 4.681
 S           1.18082892008996    0.63574537285898    0.46863235497193
O          -0.05269397228997    0.52067782744257    1.35849928267173
O           0.90749280939108    1.56697240862853   -0.60328750140990
O           2.22912405659624    1.23165445644978    1.41687208259340
O           1.61372825833510   -0.65994001672358    0.02944486862950
O          -1.19387708335466   -1.25204030798883   -2.17461677296867
H          -1.75197031926961   -1.24537749277004   -2.95366191935472
O          -1.95701356790169   -2.42955070330801    1.55613091841526
H          -1.53826913797222   -2.24096605739243    2.39746911736654
O          -0.00040431356269   -2.85881477358518   -0.19223339337145
H           0.68526835341302   -2.19040178057264   -0.02709074683332
H          -1.24046553932658   -2.76101070786226    0.96211486563467
H          -0.44290297304144   -2.57164231849189   -1.00322210277284
O           1.11940704244412   -0.10448268024317   -2.67278767002015
H           1.73241639987075   -0.69040435332390   -2.21652517727094
H          -0.34071981619827   -0.81318834106548   -2.43375442913806
H           1.03900860350593    0.66464121688957   -2.07709887384429
O          -2.08019570792520   -0.21414727998885    0.15433155014958
H          -2.24652506510514   -1.03576164993523    0.69033216806186
H          -0.95059402543862    0.24967684124123    0.81443175077104
H          -1.80295325057968   -0.53821399726083   -0.73137615392897
N           0.98258261584742    3.47017025042639    1.48883611651247
H           0.17087051924748    3.42920645490291    2.09079926995086
H           1.37449501097191    4.40187992357137    1.52549821856379
H           1.87175530701460    2.17376702644007    1.59462404203692
H           0.69160685526935    3.26155067160457    0.53763814459955
