    26
        -50.45444088  Gyration_radius:  2.55223402484 Dipole_moment: 4.679
 S           0.74649294322020    1.18274121725212   -0.25000574296450
O           0.86802961932125   -0.02940098068396   -1.16791925438441
O           1.58523531741495    2.24302862151608   -0.97489444367922
O          -0.61648475977952    1.62396860316622   -0.16785123374486
O           1.34976782465620    0.87316788988144    1.02711902263136
O          -1.80309102560723   -1.22363219764555    1.72391636169194
H          -2.01229026354972   -1.79820689508372    2.46178165299369
O          -1.92815871504773   -1.89128887751324   -2.20332608585950
H          -1.51562954908716   -1.45745322838318   -2.95188032177590
O          -2.80298531686829    0.03320926998841   -0.59065872166673
H          -2.40347310539958   -1.18317453243633   -1.70456044514526
H          -2.74998841247486   -0.43022557112230    0.25690437585128
H          -2.11052108202469    0.71376775744291   -0.55141588923326
O          -0.81873483369012    1.06335142868313    2.57074218715245
H           0.08250023947297    0.98543306441387    2.20388360769170
H          -1.25463510763215    1.69383763292399    1.98788475396791
H          -1.44568016831757   -0.38188419400658    2.11298698079878
O          -0.17746438207354   -2.07327737665223   -0.25667022140727
H          -0.82382612907435   -2.21753360866487   -0.99928228760296
H           0.45466151717010   -0.93554868968001   -0.73902213330070
H          -0.72797561188089   -1.81108715282287    0.51438668694707
N           3.75002579050532    0.96757982988191   -0.46778474296836
H           2.53748014617887    1.87655940439205   -0.89936104104296
H           4.65945542624308    1.34749188794460   -0.24051934219960
H           3.28887960738845    0.65873916043611    0.38364613567872
H           3.86841003088610    0.16983753672983   -1.07809985841651
