    26
        -50.45731610  Gyration_radius:  2.44429463196 Dipole_moment: 6.861
 S          -0.39851467876710    1.65779458215180    1.04827643429641
O           0.41751323436883    1.87432765691722    2.22272320585692
O          -1.00612445837852    3.01829824250262    0.59025829165065
O           0.46169262075516    1.20797456502618   -0.07600361438252
O          -1.48597042849894    0.72183112061752    1.27338688834799
O          -1.49587212980228   -0.90273784507290   -2.26557634643001
H          -1.76177781030792   -1.27900139925129   -3.10517766820975
O           1.46230369605893   -2.14502502600573    0.75030411888388
H           1.52537653491223   -2.98148533956698    1.21325244141210
O          -2.45361397997269    1.51378835319934   -1.08066014826619
H          -1.56090983951537    2.76035213077568   -0.17367660798176
H          -2.12034329767250    0.82458551954075   -1.67584552629360
H          -2.47692696877368    1.08432665470373   -0.21119904080955
O          -1.05965450411671   -1.72236017432330    0.39326090707442
H          -1.32980484371789   -1.59571384843439   -0.53038574680845
H           0.47504562235569   -1.98835868208944    0.61664530231921
H          -1.26421015529559   -0.86485727820633    0.82536497334616
O           1.12752007163312   -0.68457430334471   -1.85605450612368
H           0.90272990795695    0.10314357944682   -1.32672227998095
H           1.38479968851359   -1.35886882383814   -1.21719124273237
H          -0.51312476051554   -0.82755053529523   -2.28056892529460
N           2.29180150470889    0.29743643441998    1.39737698960306
H           3.28243063844576    0.51304034844448    1.38786496923275
H           2.09164879808330   -0.73217634942678    1.34215935298780
H           1.77003848915723    0.77925257384966    2.16242662558175
H           1.73394705838614    0.72655786325917    0.57576116272068
