    26
        -50.45444101  Gyration_radius:  2.55414257306 Dipole_moment: 4.678
 S          -0.74010303409266    1.03016446737562    0.63612594713229
O           0.52925801976372    1.72260995411529    0.63537949467323
O          -1.33584014653178    0.88802462100289   -0.66162920001099
O          -0.56836545286986   -0.33028816849670    1.30438608260541
O          -1.71992881805581    1.74723881436710    1.57370667891309
O          -0.86501162413355   -3.34312067678852   -0.50634252853344
H          -1.57087244052507   -3.27190631376126    0.13818906518548
O           1.53346429399554   -0.66193393215576   -2.22051954362795
H           2.37489204591935   -0.77069661551540   -2.66606366420756
O           0.91571181471579    1.88510085945171   -2.00036168694761
H           1.35988054793559    0.31565269037216   -2.17777022008774
H          -0.02589294384145    1.87660458703963   -2.20162470282723
H           0.94949389206335    1.96726203920258   -1.02828094883941
O           1.11174120939829   -1.76981520572958    0.20554826277144
H           0.20718022848994   -0.93682177189154    0.85052881735659
H           0.49991592677219   -2.52126082556504   -0.02033243079710
H           1.34232293158122   -1.35941125665340   -0.65728074845966
O          -1.19854476210901   -1.34889591256086   -2.23259992894369
H          -0.27981907133774   -1.21742064282489   -2.50579875763779
H          -1.09613227227811   -2.71814012557403   -1.23584028613321
H          -1.42434901069410   -0.55878691691736   -1.71405549089112
N           0.05339767577933    1.89307332366383    3.41917680447348
H           0.21170778920714    2.64764611501358    4.07389499264756
H           0.17336236761435    1.01015980613798    3.89767815052401
H          -1.17154104276187    1.87615536396470    2.42744901007204
H           0.73407188593233    1.94880571272608    2.66643683148166
