    26
        -50.45444076  Gyration_radius:  2.55192908547 Dipole_moment: 4.680
 S          -0.17821923658414    0.63340016083179   -1.25934474687408
O           1.11362626412866   -0.10744779763264   -0.92949621382960
O          -1.31136613570069   -0.23734623836828   -1.12923083873060
O          -0.25488153690339    1.83384167924608   -0.45693012358256
O           0.01255169688867    1.00850306553890   -2.73450621783535
O          -1.15811010784776   -0.48733113760013    2.47831455833307
H          -1.28669525425806   -0.28877800874420    3.40696583259750
O           1.13673010074776   -3.21862252398489    0.70173641188868
H           1.48063252895025   -3.30085632357952   -0.18915255882747
O          -2.43391652563340    1.24586146339427    0.96692642161942
H          -1.66894383582618    0.19642770316267    1.96916200073627
H          -1.66512380973935    1.66588182614193    0.53632584574756
H          -2.80312003960749    0.67737898200084    0.28298622477690
O           1.32981177621997   -0.71233991749553    1.45543175564398
H           0.45368956483630   -0.57713269864504    1.88029121678552
H           1.40388066781137   -1.69559794595315    1.32190349790275
H           1.22701921279693   -0.32232030152496    0.12745778060092
O          -1.39945216658459   -2.45303711970813    0.47467262461393
H          -1.49583589297982   -1.96661859055460    1.30536039018180
H          -1.43617825647541   -1.77610665628522   -0.22149345549430
H           0.15899471957497   -3.11133300596489    0.60870975361635
N           1.85876501274131    2.68259415350506   -2.13530919766481
H           0.77490766531467    1.69020398803621   -2.70353921377532
H           2.73524006641419    2.21994987847777   -1.93375290356451
H           2.04912467450642    3.58008642997029   -2.56109633969559
H           1.35686880721755    2.82073892573505   -1.26239250514114
