    26
        -50.45731616  Gyration_radius:  2.44443990493 Dipole_moment: 6.851
 S          -0.45566435013377    1.33591372314424    1.41756119233419
O           0.00386076646126    1.29385449855467    0.00561492075049
O          -1.02958299391652    0.06136323250541    1.81208992168595
O           0.63674959116627    1.75514541267522    2.26769347533192
O          -1.57897493518420    2.41579505960948    1.45844333494061
O          -1.89504426634208   -1.22570174892347   -1.76133009826227
H          -2.33806880235602   -1.60610349099844   -2.52043715241499
O           2.22288070081332   -1.52771517523893   -0.20661091853432
H           2.71056529191596   -2.31266026236344    0.04645254839912
O          -3.01711485964882    0.60271592402572    0.12036300949823
H          -2.57379169722684    0.13913688860706    0.84794941964240
H          -2.27467314694890    2.02431461046904    0.89195310745638
H          -2.74127371906308    0.11705140999838   -0.67248807018113
O          -0.24432171786208   -2.00711127558136    0.38600555175534
H          -0.52132770755910   -1.30830535417447    1.01765887357675
H          -0.87148485603309   -1.92746656880102   -0.35022675526893
H           1.26213570252042   -1.72382481136690    0.02888172520553
O           0.48399952141044   -0.11875425469712   -2.22245926899418
H          -1.06597212135308   -0.80616799142405   -2.09033414276526
H           0.24961295589550    0.50089143624542   -1.50653721832429
H           1.15890415282116   -0.69776342385601   -1.85089364042646
N           2.44128084216620    1.00409749132658    0.57540121366642
H           2.56170202905459   -0.02377525729921    0.39480394926004
H           1.50909314504929    1.25731048342786    0.08802361944465
H           2.13194043004246    1.21902371584954    1.54868075830659
H           3.23457005430319    1.55873572828944    0.27374065392133
