    26
        -50.45444088  Gyration_radius:  2.55402021275 Dipole_moment: 4.695
 S           0.13473026138339    0.19933341886803   -1.39680002013674
O           0.58903241493393   -1.10599297722480   -0.75152673806077
O          -1.30890485132880    0.27151799182242   -1.35656578445731
O           0.79878438706172    1.32126974644597   -0.79728054754635
O           0.60440366194364    0.04225287843570   -2.84864270303882
O           2.36134956887745   -1.16669682707810    2.29228799762677
H           2.91133208974361   -1.49191919453546    1.57781395747902
O          -0.91288932805819    1.10300049656274    2.38072381221668
H          -1.57719675587805    1.21466526276891    3.06228079516091
O          -1.57681474147392    2.42040024387011    0.20331636119012
H          -1.69999903566370    1.66269090561829   -0.39957573411132
H          -1.22151359198523    1.62830596456094    1.59561064324513
H          -0.73182849496405    2.79677978004353   -0.06421332210474
O           1.81720431790940    1.37723819300821    1.74297472169314
H           2.31321251521233   -0.18670636711623    2.17644492465227
H           1.61609411257941    1.42807257257396    0.79373785710614
H           0.96141163952367    1.45781261485541    2.18698848678333
O          -0.15939815402296   -1.36601711988367    1.58834839821118
H          -0.50649673712954   -0.49791057877743    1.89160508901933
H           0.21325141966574   -1.23892237200994    0.25643079593439
H           0.74478045769402   -1.44049475081935    1.99696153802793
N          -1.13631540822641   -1.78792354256464   -3.28710100149732
H          -0.85856926464051   -2.68070071647624   -2.90141696674538
H          -1.71502021804456   -1.30554511158096   -2.60486366406063
H           0.00952343604128   -0.70957016462224   -3.20576706351417
H          -1.67016371119405   -1.94494033675163   -4.13177181310199
