    26
        -50.45444097  Gyration_radius:  2.55384013127 Dipole_moment: 4.693
 S          -1.07436786967981    0.42894129525251    0.81899837529734
O          -2.04824961145569    0.53799783785201    1.99918707716873
O          -0.10370071822149    1.48271433751219    0.90006563013883
O          -0.41838755273402   -0.92918438216886    1.04655815382454
O          -1.81482390124346    0.39646544150615   -0.42265162462205
O           3.07595741500448   -1.35593110426187    0.94125396711756
H           2.74359935550005   -1.52456167478097    1.82433423386218
O           1.60336169310915    0.64422249496349   -2.17520733993537
H           1.82430535524240    0.60013035915972   -3.10662592819141
O           1.10587489266809   -1.60970934261069   -0.77426945506290
H           0.20740727936619   -1.24656481653518    0.22011137081091
H           1.25701087343047   -0.82661630913853   -1.34875609091847
H           1.92869612157688   -1.68739959608632   -0.22017674717637
O           2.57450198018670    1.20054001689434    0.40996632010157
H           2.49057198364742    1.15117121764345   -0.55259389453463
H           1.67773227934511    1.38872668675393    0.73325853660461
H           3.05019527180245   -0.37553794761291    0.82161257999594
O          -0.44492652040982    2.24481510372060   -1.77509336625295
H           0.83235280437341    1.26619482050605   -2.09608177072283
H          -1.08990271249714    1.58682882597745   -1.45280997854316
H          -0.17423842244714    2.71558685207440   -0.97989970080358
N          -3.53519245091612   -1.31285966194092    1.03229177289394
H          -2.74209217217914   -0.18586183226001    1.79597120317412
H          -3.23173195221651   -0.98532498210204    0.11923479801334
H          -3.14909945694182   -2.23435420003557    1.18950826103215
H          -4.54485394426889   -1.37042946028638    1.05181357673617
