    26
        -50.45444110  Gyration_radius:  2.55358260418 Dipole_moment: 4.684
 S          -0.45099347949463   -0.96406654784124   -0.93757872121588
O          -0.73255904267476   -1.67839895357572   -2.26565496283728
O           0.68046889630399   -1.57163955924299   -0.29742799587461
O          -0.12219040248234    0.45764709852291   -1.38169770711711
O          -1.65096322478811   -0.94385001199558   -0.13096646222921
O           2.72835524144881    2.16581520761788   -0.21184158147340
H           2.79749837761096    2.00509638016892   -1.15424694560381
O           0.56194512613907    0.48085314264387    2.67709519256507
H           0.32342535707333    0.80284965098459    3.54757579345293
O          -0.62175139458683   -1.81305636220782    2.17275465798194
H           0.08917284103591   -0.38480707053482    2.55596577586746
H          -1.19448060770337   -1.52816344327121    1.43543106468113
H           0.08337554046381   -2.30839321976439    1.74309097620026
O           2.69204334893969   -0.21540276109130    0.97021807206795
H           2.17656294292029    0.00463192872334    1.75880326856659
H           2.11291030567232   -0.78825557792010    0.44052148903954
H           2.89516364652202    1.29648834620758    0.22706555098086
O           0.20439380899591    2.03022389712399    0.49494319582433
H           1.14037077143831    2.28736071965803    0.27593652425241
H          -0.03270392354268    1.15462553797839   -0.55597095956198
H           0.27062277152499    1.50264719746171    1.32163638681617
N          -2.89745323523914   -0.34634811366663   -2.59904097666182
H          -3.77139971524498   -0.66904070775839   -2.99290907343893
H          -1.59745449433642   -1.23729700426390   -2.58785197930696
H          -2.71831754339391    0.59561125423586   -2.92080368213482
H          -2.96604193261117   -0.33513105822023   -1.58504690086596
