    26
        -50.45479406  Gyration_radius:  2.47178931399 Dipole_moment: 5.880
 S          -0.53464482191251    1.33371099266052    1.53668258846115
O           0.69769502075740    2.12833403757484    1.97003400309201
O          -1.70761226968820    1.83672759909052    2.16175609241127
O          -0.57738311211622    1.28851444411563    0.08593276913521
O          -0.25854996003945   -0.09910886816567    2.05067032718700
O          -1.90771043482416   -1.76393466067054   -1.12210382534582
H          -2.51515829453216   -2.49140997714849   -1.26276565434686
O           2.01397019058960   -0.52672073999662   -1.57683780691657
H           2.48122365965387   -0.98541657999030   -2.27630811403383
O          -3.05423014602900    0.26996722726391    0.17245473257341
H          -3.31728120147670    0.46029416321718    1.07679130856130
H          -2.26506667583674    0.82125514087875    0.03411092062064
H          -2.40843093468565   -1.07309965212155   -0.63110458522575
O           0.43658968212549   -1.76562209586946    0.26823118126070
H          -0.39526688636292   -1.87728056228088   -0.23242205927756
H           1.07093822014993   -1.36283350619334   -0.35747280927062
H           0.04567119153012   -0.76188241199413    1.33129515836959
O          -0.34795399231543    0.23573099861947   -2.39053058241950
H          -0.47788963743657    0.82993159754640   -1.63327032905352
H           1.17514560449474   -0.17321147969940   -1.98490158986402
H          -0.94146112428665   -0.51002293095669   -2.21799847915615
N           2.62561763082364    0.79444114930612    0.95914231507852
H           3.51423403762486    1.27770298096450    0.97324306846986
H           2.42131858700115    0.51641603668041    0.00104038497322
H           2.70150626039899   -0.04426419724136    1.52112660149726
H           1.52472938638983    1.64178127440885    1.54320440321938
