    26
        -50.45444108  Gyration_radius:  2.55377377767 Dipole_moment: 4.688
 S          -1.05346647776496    0.56696102429131   -0.76126999865268
O          -1.89169613488430   -0.09811242370330    0.21131572238044
O          -0.10498555290206   -0.45181720101914   -1.38494046159586
O          -1.90399384367191    1.01544158541518   -1.95654084357964
O          -0.32517100950064    1.68978011071645   -0.24353582427508
O           3.37264641044132   -0.34891905321535   -0.82972750249853
H           3.17593886795756   -0.17687984016201   -1.75190610269163
O           1.20171997043955   -0.09993495759416    2.50249626852442
H           1.33170964625622   -0.49919997433786    3.36388489842111
O           2.28831944240972    1.63576720890523    0.56809393769747
H           3.12703525825142    0.47294768836731   -0.33942453352470
H           1.40941498844646    1.80474168611215    0.18986653824772
H           2.12007213203197    1.17248302997497    1.40058387304189
O           1.33773743578166   -1.59789752119563    0.26020395815916
H           2.20996446156996   -1.30895801604113   -0.12157034445928
H           1.26049713450470   -1.11784749178401    1.11442796718116
H           0.48763498822804   -0.98951627293234   -0.65349239838919
O          -1.08849638674290    1.18954917415605    2.40635148020227
H          -1.54339194787185    0.64014305112113    1.73996234572730
H           0.32824002352694    0.37268142561945    2.53833250964024
H          -0.84509158925225    1.98714233168231    1.92485379652356
N          -3.05123941419597   -1.27342057209093   -2.08529034096838
H          -2.46232229772943   -1.97102359072920   -2.52050936317211
H          -4.01762373612351   -1.47155770615591   -2.30859549264111
H          -2.91926007517127   -1.31986699394184   -1.07856957410182
H          -2.44419227404398    0.17731328853490   -2.18500051519388
