    26
        -50.45444084  Gyration_radius:  2.5541746469 Dipole_moment: 4.697
 S           0.73266006019991    0.30368950353719    1.17450037717298
O           1.11162606614177    0.89315724052801    2.53901526032645
O           0.31519277548113   -1.05906277900453    1.34075115478528
O          -0.43911750981423    1.17915928386630    0.74192137871342
O           1.82656564059798    0.48167434737154    0.24575971105105
O          -0.20670842024963   -1.71425438416270   -2.17717565423753
H          -0.03658751351268   -1.94703223152717   -3.09105398586695
O          -3.45807992793858   -0.19299129651639   -0.44608232956378
H          -3.60228145173050    0.26664133052487    0.38256969876107
O           1.96353191151694   -2.00238835086987   -0.71979948316309
H           1.60967124742794   -2.40003357266700    0.08265476066513
H           0.64648251107725   -1.85160878264349   -1.68637573767543
H           2.10817670598692   -1.06800748682081   -0.47720586972888
O          -1.24527625997189    0.69630591603906   -1.54278607351184
H          -0.75373967274087    0.99979487688757   -0.27961733461298
H          -0.83169706710063   -0.14555616131982   -1.83648841080775
H          -2.17741340263365    0.45385881908769   -1.29330847004148
O          -1.81797741794140   -2.21933721953917    0.07732846203738
H          -1.13005932523196   -1.88316952241686    0.67552653989691
H          -3.00041884920445   -1.03745480909749   -0.21472526308982
H          -1.38514253286316   -2.30202681714288   -0.78396725241712
N           1.99699287983280    3.03639651256093    1.44633988348246
H           2.23770735929304    2.45024093784015    0.65164094651881
H           2.80336163453235    3.58254649140513    1.71939370837223
H           1.25177783492410    3.66267414078853    1.17184638285958
H           1.48075270391985    1.81678404329264    2.29933760006384
