    26
        -50.45479407  Gyration_radius:  2.47166859171 Dipole_moment: 5.881
 S          -0.32218518396815    1.66977877339231   -1.23853810379874
O           0.95545814967423    2.50710809152675   -1.30354970631831
O          -1.39956792796117    2.33841137786639   -1.88026002402627
O           0.02687913624605    0.38854083749428   -2.03219724136250
O          -0.56421329697795    1.28938995215404    0.14176805092576
O          -2.03791639224956   -1.91959737729084    0.41079922448305
H          -2.65611468004817   -2.64209575664663    0.29300494328216
O           1.77957605854706   -0.93695953287317    1.66637381889179
H           2.14757902124343   -1.55917655878477    2.29517513222142
O          -3.00252396664005    0.39200474638109   -0.51300997658696
H          -3.13951614779661    0.79520608568957   -1.37432933934916
H          -2.46885726142693   -1.11920736511461    0.03300749905418
H          -2.24152083591909    0.87260339429065   -0.14455801499652
O           0.47531699168750   -1.66599453145235   -0.61270885801535
H           1.01609892716177   -1.43840973893222    0.16951140107738
H          -0.41722516837436   -1.86659841528438   -0.26882072781201
H           0.23104429299205   -0.43191906403678   -1.45386805734205
O          -0.67458043522160   -0.31596873480838    2.31059138253685
H           0.89160180478978   -0.66351535906067    2.02923530890829
H          -0.70079334057945    0.44127732377142    1.70284594956342
H          -1.23612259470852   -0.98376018178711    1.89013027840925
N           2.72955959375792    0.91679996773740   -0.38618735990405
H           2.39745395211126    0.43116276100626    0.44495052183220
H           1.71750077831516    1.91007200759721   -0.89649868562288
H           3.61171260681724    1.36209939642736   -0.16966324516909
H           2.88135592852664    0.22874790074179   -1.11320418090034
