    26
        -50.45444086  Gyration_radius:  2.55422892578 Dipole_moment: 4.694
 S          -0.02537246744430    0.31977749600222   -1.38033769040347
O          -0.22071838265708   -1.10074190800755   -1.32490746525607
O          -0.95357751908452    1.03178937148036   -0.40166912050818
O           1.33580576493492    0.74289535491390   -1.13723779992178
O          -0.49609941950956    0.84862381129919   -2.74113760955292
O          -2.66578352994188   -0.70179636598126    2.14449140142286
H          -3.28720463711967   -0.34028145857476    1.51059504146512
O           1.22512282365734   -1.54197647467785    1.95947117345985
H           1.87042372059205   -1.66896291344444    2.65642212795678
O           2.37811127547958   -1.60148122136681   -0.40349388040133
H           1.72395872771175   -1.58230491679476    1.10084275110854
H           1.74571219596868   -2.11411938942513   -0.91781155036333
H           2.21232750141752   -0.67890818434879   -0.67596881088809
O          -0.40110769433901    0.61348012567968    1.96928147344010
H           0.24620542473159   -0.12544080464208    2.00181803532509
H          -0.67427895034505    0.88780183536238    0.63588844545782
H          -1.27186292764980    0.20681451647269    2.22691702740912
O          -1.18232469770823   -2.47838474588804    0.83596495694268
H          -0.36813221875938   -2.42129972742862    1.35542107264509
H          -2.24505720828334   -1.47901830699707    1.70284027088783
H          -0.96142933809521   -2.08692286983968   -0.02546032492611
N           0.42254816924385    3.18645832404623   -2.22912085728786
H           0.86991827770483    3.82965001679393   -2.86882419726446
H           1.13030011901539    2.71212510849400   -1.67491542119884
H          -0.18040390337937    3.70695469066072   -1.60586746669733
H          -0.22708107614428    1.83526865621254   -2.71320160285196
