    26
        -50.45479407  Gyration_radius:  2.47167239009 Dipole_moment: 5.881
 S           0.32311184724098    2.07890873067985   -0.00434980888638
O           0.89182618773709    2.50639155591424    1.34896115388377
O           0.33883304652102    3.16103998249047   -0.92532883480029
O           1.01365918151193    0.88029906512437   -0.44602256494865
O          -1.14326065614914    1.69712617028590    0.30737743384085
O          -1.11104624156096   -1.30242957260663   -2.25312278459376
H          -1.71712035413933   -1.62426002651728   -2.92186285379328
O           0.51774015613785   -2.09877097206483    1.46543232219152
H           0.51749670400408   -3.02969339506137    1.69203022273761
O          -1.61354910626124   -0.79508488500971    0.37715803458749
H          -1.52782085469301   -1.03806860728309   -0.56556044817354
H          -0.89705189622548   -1.27263588405850    0.84053951255529
H          -1.32266797334450    0.69001084704051    0.35882790789224
O           1.38084107302780   -1.74274442509160   -0.97399873985623
H           0.60235868185345   -1.82144076552238   -1.54488464497123
H           1.49694548470580   -0.78616372046127   -0.85182992514678
H           0.95558311156307   -2.02765913041612    0.57195192917069
O          -0.11695931557097    1.09837912164513   -2.86539084971452
H          -0.43292828574158    2.00573654566086   -2.85735556314385
H           0.49409266899453    1.05333314680368   -2.11014830665853
H          -0.80852944654648   -0.41532375409671   -2.55410440714654
N           0.42120509241674    0.48354870835897    2.83379836409318
H           0.65024618667563   -0.38689851715301    2.35757979276716
H           0.76006761009938    1.68781577644871    1.99349475213218
H          -0.57671711487443    0.49612172864778    3.00405690165263
H           0.90364422262266    0.50246224626821    3.72275139432263
