    26
        -50.45444081  Gyration_radius:  2.55444658513 Dipole_moment: 4.697
 S           1.02349234305433    0.38884586333953   -0.89959857879342
O          -0.16747010956867    0.32346853349108   -1.69731080394052
O           2.25503879385488    0.33126122376497   -1.81224593575989
O           1.10393109707014    1.55251568233528   -0.04505891033900
O           1.17436374544430   -0.86847352817284   -0.04911787286768
O          -1.48479211050899   -3.13303568565845    0.42156529817652
H          -0.77437202645239   -3.54951406920082   -0.06887091878183
O          -2.47879555762929    0.67280630123001    1.06046152344435
H          -3.03243334488335    1.06891042360284    1.73490493457484
O          -2.39665402570542   -1.14459388109226   -1.08987719930684
H          -1.93195005697186   -2.52021591699346   -0.21136630888305
H          -2.71607562467973   -0.54989780417028   -0.39681878201520
H          -1.62264974460927   -0.69735345910548   -1.47063051193151
O          -0.52713971608445   -1.06911068781302    1.73078599288025
H          -0.91709129176242   -1.93320576409605    1.42892995342634
H           0.45888911198024   -0.92457132204766    0.76275452227852
H          -1.22489886005415   -0.39895944904554    1.55758902877497
O          -1.35168223056765    2.52433290769839   -0.42910070586467
H          -1.43193580637377    2.14345746988290   -1.30983373412846
H          -2.09287506278453    1.42252672917711    0.53451688126014
H          -0.41924766481462    2.36686923193881   -0.18704138385578
N           3.82467614766960    0.80790545400619    0.15748599418377
H           3.05586947936832    1.34268865614750    0.55243219675220
H           4.66380819183664    1.37264802621977    0.15769080116111
H           3.97761607437424   -0.01040515093488    0.73181447210415
H           3.03237823880570    0.48110022549216   -1.16405995254155
