    26
        -50.45444078  Gyration_radius:  2.55432796298 Dipole_moment: 4.695
 S           1.28207911731023   -0.34673284161599   -0.49386034208284
O           1.68971400527371   -0.10829670477808    0.87286157050860
O           0.55441437814586    0.88538214082328   -1.02178307166451
O           2.51979982006789   -0.42337872940030   -1.39674342163757
O           0.48371422328304   -1.52532560369736   -0.67451360046990
O          -2.00382973129537   -0.66713205741921    1.80505456519475
H          -2.44875594451162   -0.57450199327294    2.64870846112596
O          -2.88787130107563    0.84039259378519   -1.77612274211114
H          -2.37311901577538    0.97666187579074   -2.57309374352066
O          -1.43428363454377    1.50503123623757    0.30591866912010
H          -2.10083816793796    1.42267250083852   -0.42817712620846
H          -1.63261738589561    0.76076041903622    0.91654117127362
H          -0.28568644485605    1.18400357482208   -0.40499385796446
O           0.24576150797949   -2.00208181955247    2.07678849035394
H          -1.17207799545287   -1.18266581074928    1.97860205313120
H           0.23121852695322   -2.57172433383772    1.30056443356654
H           0.87241126657259   -1.29271769577496    1.83811177317946
O          -2.24738479742703   -1.56903691391960   -0.85235179152360
H          -2.40649652023029   -1.42657047404106    0.09124438954646
H          -2.78211885656598   -0.11350235083095   -1.54150767467689
H          -1.28366059573235   -1.66032027022045   -0.93596730835114
N           3.51529445462968    1.68485849392473   -0.33084292596179
H           3.08237946718161    2.53068952804944   -0.67730473427184
H           4.48704864998492    1.87295799784941   -0.12262521042857
H           3.03558604966738    1.39902874848460    0.51838694096957
H           3.05931890430224    0.40154848935584   -1.12289495712988
