    26
        -50.45444078  Gyration_radius:  2.55432980012 Dipole_moment: 4.693
 S          -0.93833831229716   -0.81886437585523    0.67571674600412
O          -1.51593270681752    0.49465731899106    0.68723819388016
O          -1.60216127132618   -1.67958901993558    1.75812634848285
O          -1.01943778502805   -1.49302066084509   -0.60093614329802
O           0.51808526840248   -0.77307250169267    1.12635467549490
O           2.31523396856108    2.25126918846798    1.33086291662417
H           2.20442580173819    1.86907029530092    2.20283323778826
O           0.38287489758409    1.75614209001669   -2.11870180318646
H           0.64976220886198    1.95300033564968   -3.01776723947694
O           2.01382713942906    0.36915648443543   -0.47355950260883
H           1.45161285620488    0.83237403231192   -1.13345804588890
H           2.32989711784398    1.08247539729393    0.14393178231535
H           1.17841009501346   -0.31828827940376    0.39656179215642
O          -1.94124499513590    0.52587115379850   -2.08251034096574
H          -2.37839118682410    0.95380526167376   -1.33886456219392
H          -0.49900440559970    1.30172275740643   -2.17811919326476
H          -1.65165625667119   -0.33452023952131   -1.72372980171732
O          -0.11889592498783    2.83488175060816    0.43458380866125
H           1.43553219610152    2.62611358602735    1.08231442455327
H           0.03602016806477    2.75097963455104   -0.51671000420317
H          -0.69508394937402    2.08702951331346    0.66447855280150
N          -0.38224646101040   -3.77926504253647    0.93653341766574
H          -0.73989498825862   -4.72423619522380    0.88983462011647
H          -0.41989071286215   -3.35639713243948    0.01305024433001
H          -1.19553084519074   -2.60517864119481    1.60151946895487
H           0.58202808361007   -3.80611672114857    1.24041642700375
