    26
        -50.45731619  Gyration_radius:  2.44433581477 Dipole_moment: 6.864
 S          -0.39084916996861    1.43032299682132    1.34492801742024
O           0.07327387662160    1.29239179859506   -0.05938315705103
O          -1.03548977137207    0.21031292682760    1.79820092805172
O           0.71829709387631    1.83214036215063    2.18176737104877
O          -1.45388045363935    2.57018326414641    1.32257319541090
O          -1.94594111643354   -1.21353815314529   -1.71014254098089
H          -2.40121232585766   -1.61437800447267   -2.45135416096275
O           2.13427099023963   -1.65246817916355   -0.11605859949219
H           2.57823979689549   -2.45166067860408    0.17047424650298
O          -2.97992213687642    0.77098056916060    0.06380037880820
H          -2.56573563093243    0.32219757611547    0.81747213900248
H          -2.16679803955782    2.18904964136114    0.77081261629798
H          -2.72668026167314    0.23116471771532   -0.70096966358949
O          -0.35579458805473   -1.97021327122778    0.48858189132912
H          -0.59744385093331   -1.22591404147693    1.08148399525451
H          -0.97338502912587   -1.89385540827498   -0.25625590557535
H           1.16416979717380   -1.78552730342419    0.12530055798754
O           0.49041930677900   -0.25740830712104   -2.20848811325347
H          -1.09391914304136   -0.85585935964201   -2.05337536918257
H           0.28519639527488    0.41114098209520   -1.52865274163396
H           1.13148317321591   -0.85048100333960   -1.80059414756668
N           2.48792770138085    0.89967785554930    0.54368916401895
H           2.55353977568687   -0.14065403695135    0.41580324643475
H           1.57311777432267    1.17792319211970    0.03687558389947
H           2.18542841931190    1.17962364244230    1.50249930561468
H           3.31168741669466    1.39484821172221    0.22101176219606
