    26
        -50.45479414  Gyration_radius:  2.47166895014 Dipole_moment: 5.884
 S           0.71610356862522    1.40236541776954    1.39627205918164
O           1.98175072465379    2.06121826034267    0.84687039546878
O          -0.27958834726681    1.34624062874920    0.34083128982736
O           1.15418113059564   -0.04648641461132    1.71617555111515
O           0.29329216348724    2.03801064915498    2.59483134239119
O          -2.29323465847422   -1.56121140884549    0.55505286177599
H          -2.89272512404889   -2.22053934313239    0.90707888146748
O           0.41727180863465   -0.75725036275380   -2.46504496357817
H           0.26799642670390   -1.27173527754233   -3.25939771441625
O          -1.82633686856633    0.24530508114405   -1.58008604737443
H          -0.45237451139938   -0.32016833768761   -2.24651793686493
H          -2.20821936827252   -0.43042720114461   -1.00067005790406
H          -1.37806319385496    0.85896602099924   -0.97522338126640
O          -2.14130180812354    0.59859377478458    2.11706143302174
H          -1.72418141280089    0.82666853438723    2.95204889049240
H          -1.60537644847136    1.06092387152941    1.45013768179330
H          -2.29026850198980   -0.81527785728798    1.19738590213123
O           0.37535506326872   -1.79781672656915    0.05348751859634
H          -0.58450745176450   -1.82642464293570    0.23480514880448
H           0.46234550886464   -1.47250204165038   -0.86451593330744
H           0.85888599518192   -0.74567989982226    1.02858973422467
N           2.65070625722144    0.51507677801839   -1.07142119837643
H           1.84362691702428    0.25207135384013   -1.63385155036370
H           3.35962227678149    0.89881832331856   -1.68254976048281
H           2.27939708565101    1.48287541597832    0.02225251921822
H           3.01564276834351   -0.32161461603725   -0.63360266558111
