    26
        -50.44993715  Gyration_radius:  2.70488529145 Dipole_moment: 5.808
 S          -1.31024298443741    1.27989568937176    0.86742942712642
O          -2.31563730818576    0.61699676684782    0.10075373080055
O          -1.92144042850586    2.42621144230154    1.67817233032285
O          -0.76988781753825    0.34759895567668    1.98046582642266
O          -0.17629008304027    1.76796569113960    0.11560963343824
O          -1.35566025554919   -1.30935268090942   -1.55431526082578
H          -2.01700599758340   -0.73825405712991   -1.13463078515894
O           2.18471626575641   -1.61917221262954   -1.02339769644234
H           3.09292239452748   -1.81731461804355   -1.25331077243112
O           0.00650291344834   -1.69509931002414    0.70220364019426
H          -0.44899943928814   -0.52369719850434    1.54947924077506
H          -0.57053820018953   -1.64932976103308   -0.10234393335806
H           0.90830145792901   -1.56474865314414    0.36961777732668
O           0.40126002648617   -3.41332083018436   -1.93735778733381
H           0.14530394103944   -4.00074579423681   -1.22269534154862
H          -0.34407506929597   -2.80343454623169   -2.05893294552396
H           1.62893903757187   -2.31079971962904   -1.45395540184636
O           0.57528992596402    0.40932559729974   -2.11790851526760
H           0.34354521865120    1.03101184855536   -1.40670536313179
H           1.30468762088420   -0.13054710084333   -1.77526469601520
H          -0.71061447100303   -0.67276948574220   -1.95437906322417
N           0.36044532899052    3.34366541801156    2.39569979334996
H           0.61330129036114    4.32064278410745    2.45877056299900
H          -1.11126721642837    2.90635404135263    2.08489428855112
H           0.70997228449174    2.95662218236223    1.52333225239596
H           0.77647156539281    2.84229558118471    3.16876906655709
