    26
        -50.45479416  Gyration_radius:  2.47165089205 Dipole_moment: 5.882
 S          -0.53529719088940    1.51650781480077    1.35561278291164
O          -0.47012828185826    2.01079981299888   -0.10885457384667
O          -0.43825796056383    0.06772045840457    1.34400987883505
O           0.72732163061292    2.09107219692142    1.99861753779175
O          -1.70248711152709    2.04054497105303    1.97428517659487
O          -1.96870485156100   -1.35462995630375   -1.51666236067219
H          -2.63541371824166   -1.57590352377458   -2.16825179391523
O           2.09070381075019   -1.38923240661648   -0.71752523094697
H           2.57373357104032   -2.05396275845384   -1.21026775539364
O          -3.00785371025925   -0.11517580497868    0.60693379638639
H          -2.15342473442422   -0.16091002103893    1.06927702339087
H          -3.33595589921280    0.76529581057550    0.80778262836568
H          -2.43675711044879   -0.89284239558428   -0.78400281664382
O          -0.08074091919367   -2.40536046177600    0.31949185811016
H           1.34055872187265   -1.86588028216375   -0.26443890321032
H          -0.21935142778526   -1.64658787050241    0.90983941932530
H          -0.76647704598838   -2.31364647769904   -0.35838557259511
O           0.21117909510848    0.25487257639823   -1.80884761560669
H           0.94502186415333   -0.29382832728104   -1.46756376014798
H          -0.57406856323743   -0.32703097589115   -1.81629608093260
H          -0.17058430363406    1.30471768775965   -0.78784313105815
N           2.58810612860637    1.23396082783262    0.47518801534152
H           3.51867880910291    1.34883875180912    0.85493247684350
H           1.53437540486411    1.73286144514560    1.42999006366976
H           2.51471972036720    1.77516809239899   -0.37730432582381
H           2.45110407235385    0.25263080596834    0.24028328322716
