    26
        -50.44993676  Gyration_radius:  2.70567604459 Dipole_moment: 5.792
 S           0.05222183813963    1.65579118976529    1.16553644277018
O           0.89157227779753    1.95305185337659   -0.10197787463344
O          -1.34230522172217    1.77445949179880    0.88392564934387
O           0.47520518803386    0.37341385362113    1.68105271901207
O           0.50431860072290    2.76684837498297    2.11767203795657
O          -2.34930719453050   -0.24166910900795   -0.62974258206855
H          -2.35821382209117    0.57543615710295   -0.10832992215539
O           0.34829485861035   -2.41910044050687   -1.57269548037381
H           0.76091926356581   -3.24605784198674   -1.82339639298122
O          -2.01380189910265   -1.95845143609763   -2.77425406066207
H          -2.42721475086711   -1.45412839596028   -2.05521591125109
H          -1.89098092656663   -1.33585927802992   -3.49435690932076
H          -0.52332897132375   -2.38962911177599   -2.03309272045038
O          -0.02826079636393    0.32499644174860   -1.80835234177475
H           0.56714792190787    1.34535333241565   -0.85936762064190
H           0.40950940817487   -0.53636791487284   -1.72346357121306
H          -0.94561076529073    0.17966086055258   -1.46243884176041
O          -0.88688515362735   -1.84307238718321    0.88580647923652
H          -0.39259894228600   -1.12503244086462    1.31715239298092
H          -1.98281283367411   -0.91832710274686   -0.00591298498271
H          -0.31569194502463   -2.17302197616090    0.17457937402702
N           2.81852683883556    1.72898284133087    2.48028298448687
H           3.32001578954435    1.68883859822997    3.35738534533992
H           3.47163377319430    1.91885175698976    1.73235571018117
H           2.36579999650485    0.83591307529523    2.30535699422156
H           1.47184748733032    2.51911959800688    2.35149109477776
