    26
        -50.44993692  Gyration_radius:  2.70551947666 Dipole_moment: 5.795
 S           0.25096261840646    1.96201787700221    0.43626687898937
O          -1.00955760690225    1.87276361195310    1.10050377538120
O           0.06783105019729    1.84812475775771   -1.09773989820728
O           0.83855619309099    3.36809573595674    0.58605590465644
O           1.23434180460529    0.98041218516620    0.83446369615281
O          -2.09019712593999   -0.61750007911920    1.10488660845729
H          -2.02321592454785    0.32897124095752    1.30333352672463
O           0.03181730053986   -2.78997744250248   -0.81505789167391
H           0.43365651427347   -3.62069041938435   -1.07092158394352
O           0.35797083704531   -1.46490409908271    1.64213420541616
H          -1.25740710643231   -0.99945248775640    1.48153464416677
H           0.47214027830995   -1.98535149211881    0.83148885162479
H           0.78358331603487   -0.60679048520688    1.47330682256828
O          -1.16544650080714   -0.34469391167092   -1.37831954295302
H          -1.62263614063802   -0.42249616071900   -0.50233046080706
H          -0.44797278862747    0.98777173475108   -1.30268179976302
H          -0.53871112405099   -1.08464400138893   -1.39907066240903
O          -2.59990094031411   -2.95653802723921   -0.28391670351096
H          -2.63890464279827   -2.26061339796924    0.39168535893421
H          -3.09865030248221   -2.62281149610323   -1.03303036149447
H          -0.90975724250913   -2.98846758867821   -0.59925688433824
N           3.10746941373715    2.69624093633262   -0.39583604998166
H           2.91009648683816    1.76891550657091   -0.02947320167072
H           3.12012606686764    2.65519834488179   -1.40594598259422
H           1.78271985011228    3.28982684383629    0.19258373770864
H           4.01108571408891    3.00659229189499   -0.06466300596625
