    26
        -50.44993710  Gyration_radius:  2.70420026364 Dipole_moment: 5.815
 S          -0.18002177057462   -0.49240600140733    1.95873680598047
O           0.12885332777380    0.85919616889148    1.55031543757789
O          -1.49068664936514   -0.94974668507017    1.62539607937148
O           0.89518144761181   -1.42499108989261    1.34719994492223
O           0.07770663818628   -0.64703935686982    3.46025381468221
O          -2.17466126645334   -0.54014749739974   -0.96984845300650
H          -2.28490812325267   -0.82051461509294   -0.04845582450222
O           0.64571985000320    0.86325182582130   -2.69789616462887
H           1.09658948600507    1.37939938838070   -3.36666489454089
O          -1.41903660875796   -0.58615560258408   -3.63194717086589
H          -1.96803756078281   -0.55825178430678   -2.83188272027131
H          -0.11342259902108    0.42297085124611   -3.14777662032853
H          -1.14689481017562   -1.50125767581323   -3.73118189833951
O           0.33909500759939   -1.40751517159415   -1.12248261847669
H           0.73205590678550   -1.49306522435397    0.33889565378191
H          -0.62989611764433   -1.20011333476988   -1.09951665265596
H           0.74714684217021   -0.64284835830511   -1.55784041765277
O          -1.05979054975335    1.84282976266736   -0.68990659605031
H          -0.65771256305615    1.64387687453623    0.17306373585577
H          -0.35951538383303    1.71256935045447   -1.34841327079360
H          -1.94663608506517    0.42142502029953   -0.90105253197449
N           2.27312823311718    0.67054558740493    3.37646464301910
H           3.06073359983316    0.12778572955573    3.04884978192771
H           1.86208837344553    1.16537583245598    2.58951987441150
H           0.97991934595145   -0.18196181941997    3.60958538802068
H           2.59300199923431    1.33678780517124    4.06658467456700
