    26
        -50.44993692  Gyration_radius:  2.70521299137 Dipole_moment: 5.800
 S           1.66222147045876   -0.01238544376344   -1.15758581213245
O           2.99101800397213   -0.40015477869635   -1.81264178270235
O           1.75112191658934   -0.20671793515346    0.27200051804514
O           1.25967901016824    1.29196117710219   -1.57567061812959
O           0.69778586514493   -1.08681979275643   -1.71879902939547
O          -2.25124868233817   -0.37445772740403    1.79832554708446
H          -2.71803492930809   -0.74161042969523    2.54954461728746
O          -0.97639041314004    2.21384141612584   -0.34311268606346
H          -0.21014741953643    2.23157059924386   -0.93659974590673
O          -3.51891755706136    1.67907422454712    0.61029853783012
H          -2.78344892469123    0.39476956757793    1.48589662802446
H          -2.73109454308074    2.16085305713357    0.31114389621577
H          -3.95356481994133    1.36722322026430   -0.18668248111200
O          -1.57127727987580   -0.32312977787331   -0.89652894755808
H          -0.25870404270336   -0.84159332045945   -1.44818443937925
H          -1.73178027529849   -0.65018986723749    0.00242588533377
H          -1.42030140603878    0.65064528025744   -0.79005871115081
O           0.06867419451450    1.21166843728766    1.87130767001629
H          -0.58332856065437    2.03359807654454    0.54817042355993
H          -0.63105926675729    0.56059058737965    2.03669601645211
H           0.78240912984425    0.73095002854080    1.41802627522943
N           3.27129190770532   -2.49708103583670   -0.36753086815158
H           2.73792478920107   -1.99442435566322    0.33674421732113
H           2.73026239075933   -3.28912998640901   -0.68715361006539
H           3.24898715114755   -1.28150648187718   -1.35530987318424
H           4.13792229115424   -2.82754474945702    0.03527838233908
