    26
        -50.44993717  Gyration_radius:  2.70487982228 Dipole_moment: 5.808
 S           1.53489906886868   -1.23688893422895    0.47117507220243
O           2.55225836720741   -2.08294268992788    1.24192669911196
O           1.64853344746449   -1.47237659900389   -0.93225466257359
O           0.21659751942479   -1.43493599265821    1.02982112535851
O           1.98133980966664    0.20497513883914    0.82023273022598
O          -2.24588642033083    1.82749981905886   -0.24756135355250
H          -3.03260992463862    2.29036866417829    0.04180559883844
O          -0.23125375613301   -0.20166589506672   -2.42340824832300
H           0.52943146429520   -0.77409255661854   -2.24070458028765
O          -1.94373755486305   -0.95058112803235   -0.55087794313210
H          -1.25982458054716   -1.25186754935380    0.07155275485266
H          -2.19070477824914   -0.05676881987904   -0.26610966726918
H          -0.95855049402724   -0.58946956026013   -1.87383039250713
O           0.49953225217178    1.64240000015530   -0.64547051503598
H           0.30014137717479    1.01754842113474   -1.38858145671692
H          -0.35558173710654    1.79851743357678   -0.21512190407320
H           1.44029099539960    0.86097672882313    0.25056492998307
O          -1.71720502528911    2.08980327458582   -2.87185745525430
H          -1.29722251961942    1.22494184687065   -3.00563034069981
H          -2.18898393426629    1.95417956413139   -1.22394625028072
H          -1.02183969658446    2.74028516140272   -2.99295429559533
N           1.53825419096660   -1.50665920256130    3.52304143952892
H           1.41864465035742   -2.14614884378727    4.29710406109090
H           1.82031941538706   -0.60335582513204    3.87901284833629
H           2.30518636886864   -1.93799389589425    2.22699986014457
H           0.65797150448097   -1.40574855032928    3.02507195580335
