    26
        -50.45479407  Gyration_radius:  2.47168195574 Dipole_moment: 5.882
 S          -0.14700462927138    1.75600799280673    1.14920410972357
O          -0.19125644859602    1.37877063160871   -0.25229412838260
O          -1.13429067787564    2.69396565704665    1.55539958401248
O          -0.28996602046031    0.46823862948413    1.99449530612930
O           1.25661569729706    2.26408837664342    1.48001401868607
O          -2.31971939492178   -1.39244171576438   -0.82876674839813
H          -3.10637548656720   -1.93925155049726   -0.84257363562845
O           1.79454480885543   -1.41549174766098   -1.26407686090141
H           2.11819605619295   -2.13726469462040   -1.80468637408740
O          -2.85525584422922    1.12489114439504   -0.11891187515333
H          -3.06012884488748    1.59029861230882    0.69634458367585
H          -1.94171132693746    1.39059160695218   -0.32048196578864
H          -2.60879394490134   -0.49479965099569   -0.54641713300696
O          -0.08010080606869   -1.69968663881027    0.69352179767842
H           0.64611795605053   -1.64641200595825    0.04093984433974
H          -0.17982746140709   -0.40401817889384    1.46904190926158
H          -0.90640572722007   -1.69678306785952    0.17163594444309
O          -0.25154100319680   -0.25603534436260   -2.40115020873904
H          -0.21366105715055    0.51384253400875   -1.81012527275449
H           1.09227381139339   -0.95500286862029   -1.80229991432790
H          -1.03222638548898   -0.74857445937761   -2.10791028383975
N           2.73566339013067    0.25293305060039    0.94543305588792
H           2.46913105731451   -0.17842953720415    0.06237367239493
H           3.72475509296312    0.46329567569987    0.91701712817279
H           1.91541937271092    1.48290930350430    1.23787335403938
H           2.56554780628615   -0.41564172441217    1.68640008255072
