    26
        -50.45347390  Gyration_radius:  2.42439872981 Dipole_moment: 9.796
 S          -0.14699358014733    2.12194600277176    0.26746211383208
O           0.89763129401773    2.87158206635532   -0.36726753753032
O          -1.11707942410819    2.83156530972370    1.05581833808033
O          -0.82482141400777    1.23758724035027   -0.72933982318711
O           0.52170614369684    1.12372550379828    1.29975424741099
O          -0.49110274918355   -1.57542996994991    1.90999055328554
H          -0.80625165480839   -2.09315512329361    2.65212348031810
O           1.30994122730436   -1.43904039731126   -2.02887384792198
H           1.79144714783902   -1.86068225153004   -2.74140186931350
O           2.04786600849819   -0.90826719938927    0.59065455662722
H           1.40982183993571   -1.37346253052363    1.14525816234724
H           1.89442668353125   -1.19066334981251   -0.32537471761771
H           1.24651088871813    0.58007292513270    0.92539637752542
O          -2.03860955934654    0.59008807018905    2.04191135324035
H          -2.28764781388047    0.88954259260581    2.91875180059779
H          -1.70472362018564    1.40502407436642    1.59376450005406
H          -0.88915620511432   -0.67244674626003    2.01767168062138
O           1.11118414691301    1.10812469934598   -2.47816400503079
H           0.28545972713311    1.25243187531819   -1.96401997478057
H           1.70014195285840    1.77050242358254   -2.09884005391684
H           1.29957893596618   -0.45809787421259   -2.24385460620704
N          -1.05762469155341   -1.28079644982612   -0.69661598038413
H          -1.02972831382592   -0.17711559902243   -0.66133353842150
H          -0.91280776518379   -1.59923192637345    0.28347823045902
H          -1.94664462889838   -1.59235054786344   -1.06949851937528
H          -0.26252454617431   -1.56145281816888   -1.29745091071990
