    26
        -50.45601890  Gyration_radius:  2.44991655159 Dipole_moment: 7.022
 S          -0.42331568517430    1.31536973804831    1.47376025003806
O           0.06478035577699    1.41710998320918    0.07513725203704
O          -1.03799325573260    0.02373439510709    1.71983702479498
O           0.66043545604802    1.60962891098824    2.38645689919330
O          -1.51949797768656    2.41776003420670    1.61206640445726
O          -1.87472964412053   -1.28177026955228   -1.70122540584818
H          -2.52355516250834   -1.92209402544890   -1.99508626570467
O           2.16526117332793   -1.41733037788290   -0.50917162113601
H           2.71767768137886   -2.01638943344420   -1.01308030407020
O          -2.93540454678006    0.76968864874347    0.01588410101176
H          -2.49734069422887    0.25205710253403    0.71082016042625
H          -2.20522496405519    2.12493827538237    0.98250439170246
H          -2.66195559171849    0.33806284379664   -0.80694287639287
O          -0.47639309421724   -2.19236937530937    0.36527168298758
H          -0.70198772667150   -1.46339615296193    0.97751137503844
H          -1.41941109721048   -1.68641045868406   -0.91938462216420
H           0.47164691162898   -2.10434658154847    0.20228043356431
O           0.55734060847687   -0.10724006992740   -2.07767932828167
H          -0.27075356708420   -0.58995991752826   -2.23711548320626
H           0.29832840172882    0.56958944161963   -1.42491018423430
H           1.56437523241701   -0.95954547593920   -1.17415641375139
N           2.47487816052316    0.97710168546104    0.66685914880356
H           2.59739687678352   -0.02043874669121    0.38898672698662
H           1.56168345840219    1.29950286994393    0.17809815004304
H           2.12873247829461    1.09739320861607    1.64703152596058
H           3.28502619240211    1.54935377726113    0.45624697774419
