    26
        -50.45479435  Gyration_radius:  2.47140221727 Dipole_moment: 5.896
 S          -0.72623118154714    1.56175596630767    1.21032793012395
O           0.43342477877525    2.48265993048315    1.59103852006976
O          -0.63596163615337    1.25436583559045   -0.20599191349149
O          -0.44914014019269    0.26026969021579    1.99957391258671
O          -1.96760142711990    2.10866497541224    1.63386361588599
O          -1.72431295905814   -2.04334496136861   -0.92102597019345
H          -2.28704453833586   -2.81707493587279   -0.97302995094606
O           2.16728453707212   -0.68625410263909   -1.28901029262977
H           2.71426207145071   -1.23444195342867   -1.85315448103057
O          -3.06376239770454    0.12343278903812   -0.12162523461965
H          -3.41183452696234    0.46114199927831    0.70784022133080
H          -2.29096787348781    0.68588965510902   -0.30095751921301
H          -2.29406343730183   -1.30449849909874   -0.60720055902008
O           0.48660135438209   -1.65669678369578    0.62490363198179
H           1.15583189929472   -1.33892309335977   -0.01313529749837
H          -0.04691872510695   -0.50097802600606    1.44538301618584
H          -0.29180880073497   -1.90779137330070    0.08998031812474
O          -0.14434558825638   -0.22214875526464   -2.41338253851840
H          -0.36506344140086    0.49249254977926   -1.79364370014707
H           1.35352125418532   -0.46133430099180   -1.82020857350829
H          -0.71898093343822   -0.95647116573760   -2.15118425842533
N           2.49446341440434    1.09422658381241    1.00641486841899
H           2.39063579533877    0.64145575309661    0.10023893173213
H           3.35908819573986    1.61937603669451    1.00829297795084
H           1.31352406890796    1.97150548325984    1.33115009093518
H           2.54940022723996    0.37272070272268    1.71454224389391
