    26
        -50.45273920  Gyration_radius:  2.45702086216 Dipole_moment: 6.234
 S          -0.03084901060236    1.14162366889715    1.73476347482668
O           0.28249144076462    1.49041975079924    0.31862504338553
O          -1.40154382711391    1.44213079018518    2.05038631058415
O           0.19555754356432   -0.41548621875679    1.82585962057031
O           0.99188053960686    1.65242043090834    2.61564456093651
O          -2.12204321375857   -0.61940829547327   -1.79305908671363
H          -2.87848330726687   -0.84757963807707   -2.33471610509907
O           1.94428324493482   -1.51898441382769   -0.78108924313487
H           2.47192717047705   -2.01718919775238   -1.40630060969160
O          -3.02452127471647    1.05735753183973    0.02904673630491
H          -3.81248476162612    0.80136231810364    0.51259286305802
H          -2.36380692511991    1.28416005416097    0.72583531513395
H          -2.43931387050886    0.05905891398432   -1.14246166992856
O          -0.74472853827303   -2.07600526848930    0.06808444711857
H          -0.33179281615189   -0.99325576857797    1.21068204804991
H          -1.25535044428405   -1.63334966328729   -0.63438426870429
H           0.16138857074070   -2.17048116195851   -0.25763421930650
O           0.47285935000317    0.24028646141768   -2.03176998422851
H          -0.42071334773644   -0.09582689752135   -2.20654147736390
H           0.34404690144663    0.85721545958949   -1.28540570357809
H           1.41592171637616   -0.86102078156224   -1.31934050857971
N           2.57422732081470    0.62740051625587    0.81727067063345
H           2.52295441958627   -0.35456952639633    0.48977107435549
H           1.68681109524007    1.12403544198059    0.38988164637416
H           2.30377713434442    0.75514724611228    1.81655829736776
H           3.45750487926028    1.07053823744613    0.58770076763012
