    26
        -50.45235034  Gyration_radius:  2.42732200686 Dipole_moment: 10.539
 S          -1.51889209472814    1.59134687563004    0.26658445016930
O          -0.73658534323860    0.64515317579988    1.07844862157184
O          -2.92747356389253    1.28613163755865    0.32851504668924
O          -1.15184404704401    2.95436849601216    0.56309373304446
O          -1.07410126252007    1.32918052384520   -1.24062252154655
O          -0.48802076348614   -2.62850362955848   -0.21994660076062
H          -0.80702398880211   -3.50481396293739   -0.43944727150495
O           2.65289790316731    0.30822016561765    0.22636666177018
H           3.56865188093995    0.58635844130878    0.18270930604925
O          -2.55129233206540   -1.08901081600884   -0.62476347741671
H          -2.54742027430201   -0.83151569338535   -1.55023935695442
H          -1.28766468001190   -2.02852790506621   -0.28000552974544
H          -2.73775115593903   -0.24151432226134   -0.14344085262911
O           1.31354148257720    2.52183022531599   -0.09483365593840
H           1.19678342504325    2.66062959835073   -1.03819148575849
H           0.41672870339217    2.70863569259120    0.28595481424678
H           2.11446660675922    1.15203733842458    0.19890529212966
O           0.75453479157993   -0.56088569918916   -1.62915382645480
H           1.52607373185110   -0.32091855249507   -1.09444457576239
H           0.39416788132691   -1.37921684286172   -1.25604802039091
H          -0.39383179780422    0.62178857095588   -1.33799341217352
N           0.88584310475090   -1.19174530960743    1.58976725753326
H           0.51402513994553   -1.97524084854326    1.02388859217088
H           1.76577379215106   -0.80751477651322    1.20203792202230
H           0.15826156397743   -0.38509028335212    1.42951775874621
H           0.96015131637223   -1.42118212963113    2.57334114089443
