    26
        -50.45250213  Gyration_radius:  2.41872526332 Dipole_moment: 10.197
 S          -0.76868304068381    2.00818904777870   -0.29116386862470
O          -0.42138805571228    1.20914073188960   -1.62232689249408
O          -2.12065152880912    2.47704921834578   -0.43161109855407
O          -0.66765374368840    1.01859240596605    0.79853539800123
O           0.25167261578895    3.02468963589757   -0.16402894076689
O          -1.57564667898975   -1.97811739180300    0.68104205590717
H          -2.25114509623156   -2.65799794221726    0.67084659087880
O           2.57281840741964   -0.85613446298776    0.16626232374939
H           3.50698704493781   -1.05336042920967    0.08849785034536
O          -2.87509631933178   -0.03527004426327   -0.55998794880261
H          -2.03268305675181   -1.15315935374184    0.36236396840550
H          -2.66798497358412    0.91220416909660   -0.38782747226175
H          -2.75591264727011   -0.14015599326857   -1.50715352014850
O           0.23448969963625   -1.33237071325275   -1.30327027650121
H          -0.20912396008689    0.25571450445458   -1.46917194110116
H           1.10702722292364   -1.31907719016103   -0.88390865547920
H          -0.38995437456757   -1.68951763205616   -0.64980931947810
O           2.28027692952826    1.55195603508269   -0.74093987854390
H           2.46802280688102    0.09599090151836   -0.13729237402011
H           2.12157782285358    1.49664366926420   -1.68687008109655
H           1.56239983087719    2.16345627522066   -0.41950424601754
N           0.55357148866920   -0.82937085613735    1.93468045730432
H           1.44461934279018   -0.99361783743921    1.43088360508561
H          -0.15468627408921   -1.54507700079561    1.71567180284014
H           0.68257280689699   -0.70831727978092    2.93163919999763
H           0.10457374059385    0.07791752260019    1.47444327137601
