    26
        -50.46116094  Gyration_radius:  2.45264702773 Dipole_moment: 8.894
 S          -0.66464774419190   -0.15468723666456    2.01469220069016
O           0.48777326102923    0.76897194732684    1.86155864025459
O          -0.84794636555383   -0.87883377492194    0.75262751091383
O          -0.24466029710992   -1.21276101024720    3.08554870187334
O          -1.84826492080248    0.51609383874821    2.45271575897278
O          -1.27132271912188    1.36970194950455   -1.93892896846929
H          -1.71042516015494    2.03047708543005   -2.47580191061377
O           2.18390652749644   -0.93250869841737   -1.26310193803893
H           2.79209942526565   -1.31974332513074   -1.89328802415386
O          -2.89523314825527    0.52098717384548   -0.08941597456815
H          -3.05629898691746    0.98804684501534    0.73871004126883
H          -2.27808155527163   -0.18660617976592    0.19332450015704
H          -1.93979032953237    1.08339710602190   -1.25163517986998
O          -0.31757070464725   -1.38997229133274   -1.79731719954029
H           1.26699151643917   -1.23523798901674   -1.52027727493895
H          -0.57774936052574   -1.39788807888572   -0.85524578532286
H          -0.73547939730282   -0.59849606188543   -2.15824702612067
O           2.04251339109572   -1.38188501196486    1.62743205195936
H           2.11698612615445   -1.48728688344506    0.67018471830840
H           1.73054469686138   -0.47211571794922    1.76377335386756
H           0.56353651709226   -1.60383798996330    2.71557955754321
N           1.05085292646624    1.41533990400505   -0.54587284543877
H           1.63310161915665    0.61856777945473   -0.88017364932529
H           0.17758214332411    1.47068625357008   -1.11599807020630
H           0.77328329758342    1.18243130898557    0.48458399261585
H           1.56829926142315    2.28715904768294   -0.57542718181797
