    26
        -50.46116093  Gyration_radius:  2.45249874375 Dipole_moment: 8.892
 S           1.55775879460537   -0.41713034322412    1.38684118607290
O           0.65128017833724   -1.16943314780795    0.51329405969693
O           1.51888142365199    1.01121876844840    0.98317440956214
O           1.27729350521014   -0.60011107187264    2.77633166468939
O           3.00398765801865   -0.92435244693135    1.08082708535640
O          -2.61271459757772    0.17350490397200    0.62760664988354
H          -3.46581331977047    0.38828672760106    1.00672828240056
O           0.01896645066260    0.54904304788814   -2.63277530708522
H          -0.17001329808266    0.58485206849549   -3.57086105777707
O          -1.30168223153357   -1.38995062639114    2.24476791818421
H          -0.80488595165940   -1.07562812295182    3.00912803602688
H          -0.58883172882828   -1.54643294675993    1.58996399917719
H          -2.15921740170178   -0.42506565212653    1.28882608109079
O           2.62435463056971    0.27721255567255   -1.32744657975312
H           2.31434327297380    0.80441264185563   -0.57283080546297
H           3.11052658201376   -0.75102408359598    0.13134137723827
H           1.85880777148647    0.18680353937042   -1.90950952414724
O          -1.18609325010827   -1.38816528283708   -1.38924061057277
H          -1.92426674072641   -1.04702670556167   -0.86952512503125
H          -0.42902113191376   -0.27034303265267   -2.27702969456497
H          -0.46174042369452   -1.50145333663107   -0.74291923002485
N          -0.58651858167701    1.72742250775514   -0.27554419243766
H          -0.38859929937123    1.44492561038817   -1.25862440631560
H          -0.72968610759630    2.72883621787944   -0.20220483794968
H          -1.41356987950053    1.19713629775835    0.07853634615971
H           0.28645366621149    1.43246191226034    0.31114427558321
