    26
        -50.46116095  Gyration_radius:  2.45253779372 Dipole_moment: 8.893
 S          -1.03215472545032   -1.63507871548025    0.88588156418387
O          -0.27422774070648   -1.36548610718535   -0.34032480886094
O          -0.36312107881088   -2.53541977404430    1.77167039180030
O          -1.35450863241808   -0.33763157636778    1.53198672642690
O          -2.39491363961690   -2.26107673082512    0.44579440279086
O          -0.81753679112751    2.01073389007462   -1.58799994744407
H          -0.89460961479480    2.67189217770754   -2.27642395822900
O           2.61248267832671    0.54542221940716    0.35749517974595
H           3.48417914214834    0.73110744886164    0.70871886124092
O          -2.89019631762278    0.20822847777100   -0.57604893792351
H          -2.78013155321172   -1.58457315633531   -0.13462797355527
H          -2.48758740373617    0.22317526338323    0.30779626142459
H          -2.30443281259808    0.73581839132271   -1.13425439160065
O           2.07735244884730   -1.98780993163276    0.63092431137491
H           1.75556889314497   -2.38257409784124    1.44977043973771
H           2.46458952881962   -0.43535438641281    0.48938270004555
H           1.25454928183069   -1.91855415395189    0.10212917854507
O           0.99737471686259    0.21084587670463   -2.05559957021303
H          -0.15405043014674    1.33503555344744   -1.90688667822395
H           1.77557605926340    0.36666456510016   -1.50650756246356
H           0.50355411202525   -0.49174337304646   -1.58896630776232
N           0.17814890067322    1.60475516304908    0.89300250261354
H          -0.22216273095346    1.94259382378947   -0.00760044416918
H           1.14975579166582    1.25696547236523    0.73269921844123
H           0.15684638505069    2.33105152556549    1.60064482066611
H          -0.44034444746441    0.76101216457338    1.20734401140799
