    26
        -50.45479415  Gyration_radius:  2.47167856402 Dipole_moment: 5.883
 S          -1.09468214201687    1.45709201775601   -1.05095019887986
O          -0.16530570907159    2.60819367671357   -1.43694005196536
O          -1.23640704804878    1.58629838829128    0.48416732021291
O          -2.37237359531958    1.61363557367494   -1.65301812890463
O          -0.42666781029444    0.19943237458669   -1.33473184118676
O          -1.26582978149448   -2.32155220543804    1.00805541511239
H          -1.78988348847521   -2.92721324702418    1.53397386692284
O           2.47113562320764   -0.59308800630458    0.60171276059552
H           3.17778167533458   -1.11249660416912    0.98752705394541
O           0.08913927057377   -0.10519757776444    1.83270985244595
H          -0.39818492192098   -0.93135731561452    1.64527465083315
H           0.98159217989232   -0.23170684173395    1.45371850634328
H          -0.67984428087934    0.91722304037261    1.02437711230794
O          -2.71023236990379   -1.13186845193100   -0.89602561998992
H          -1.87802657635931   -1.92358458030720    0.34782846969820
H          -3.36298477597751   -0.42800676117037   -0.93745881344066
H          -1.90811916638784   -0.73401130428574   -1.27568699858188
O           0.88759685919496   -2.10399915290737   -0.82407223213272
H           0.22116222844476   -2.44438563688006   -0.20915158741852
H           0.45833321218728   -1.34503381688853   -1.25203033408757
H           1.97452348245198   -1.20548132084498   -0.00931518502231
N           1.88042273081582    2.21491516676593    0.03900702557139
H           2.14741919342037    1.23227994308794    0.04749240195292
H           0.71673158100428    2.47081886437254   -0.88362752222052
H           1.59490173017776    2.47178416404863    0.97575368240801
H           2.68780191944615    2.76730962358051   -0.21858962451664
