    26
        -50.46116089  Gyration_radius:  2.45252991468 Dipole_moment: 8.893
 S          -1.16681692859964    1.77256710931606    0.14964401317592
O          -0.25266169758772    1.15382577177306   -0.81580239810822
O          -1.54494369278641    0.75044380127930    1.15812212419997
O          -0.63426296664013    2.95726564413950    0.74596171963162
O          -2.47317226121930    2.12956912371585   -0.63043711152562
O          -0.57030367517288   -2.47364097066460   -0.88913039003880
H          -0.54831384018105   -3.33014365366924   -1.31683223657044
O           2.55440770852941   -0.23425268308766    0.81816792787804
H           3.37842164374581   -0.23874587992774    1.30671731976875
O          -2.78658102776880   -0.56537804113648   -0.79788066500410
H          -2.76757837043148    1.27512769506517   -0.98561194465366
H          -2.12462788476261   -1.21384264838062   -1.07072252339052
H          -2.50057422538634   -0.25703327326381    0.07770807351979
O           1.25630051200693   -0.82861907230990   -1.73097903337215
H           0.11654420259896   -1.90536658260595   -1.34076720170719
H           0.69406697517682   -0.04122868808348   -1.59263047194025
H           1.95975405970118   -0.74292355927839   -1.07580574171336
O           1.94211801686628    2.20689045584773    0.15131065962716
H           2.37291308884552    0.72321488427753    0.59121902386411
H           1.50895712193083    2.83221945183717    0.74391082918083
H           1.19681384443742    1.91456653946307   -0.41470115442139
N           0.09091947896292   -1.19742652586835    1.40121380361802
H          -0.57765700008493   -0.33589318398456    1.33518604066508
H           1.06863215695264   -0.86594891567213    1.24419740369431
H          -0.00809467851143   -1.64270386932518    2.30709418945485
H          -0.18426056062163   -1.84254294945701    0.63084774416819
