    26
        -50.46116095  Gyration_radius:  2.45255696676 Dipole_moment: 8.892
 S           0.09504074346855    1.74780396328882    1.20838370699980
O           1.22351672413472    2.62303365717898    1.15063217319167
O          -0.40775698027493    1.36966321604303   -0.11633609052270
O           0.37754002739369    0.50710376591008    1.97368847049799
O          -1.07880782083814    2.46676282182030    1.94842532989961
O           1.88103246294383   -0.74601581863009   -1.77661246023156
H           2.69149142865150   -0.99005258529440   -2.22532840079343
O          -1.79673563085399   -1.99495650807310   -0.15978391948091
H          -2.40087108543022   -2.67258853502838   -0.46446556881130
O          -1.00706499694332   -0.37094672399319   -2.02827707354130
H          -1.62403032586285   -1.38928305877357   -0.93554679885284
H          -0.92929875982425    0.38750675054043   -1.41680766900489
H          -0.09845984575300   -0.56963750508074   -2.28575162546506
O          -2.23980851163505    0.00947167356590    1.92623412560939
H          -1.29638981351891   -0.00472182644928    2.15688854938577
H          -1.78709619318527    1.80246849316217    1.95258443133580
H          -2.32872131217036   -0.58571060528119    1.17060136872260
O           1.82050524230207    1.83142784189655   -1.41321898079799
H           0.89524875236593    1.81048434396283   -1.08942061462442
H           1.91460708789056    0.24790114635253   -1.66649535053067
H           2.27414763163577    2.28214445383976   -0.69144956356087
N           0.77837505694202   -1.57857768388473    0.55275129605051
H          -0.18426100869800   -1.91637649322853    0.34150959504046
H           1.25869520187672   -1.31890627110022   -0.33751373744690
H           0.66220064391161   -0.67503110526255    1.15563116996006
H           1.30690126147101   -2.27296738748067    1.06967763697127
