    26
        -50.46116094  Gyration_radius:  2.45258077986 Dipole_moment: 8.892
 S          -0.39518034954347    2.00144964663065    0.60165766566550
O          -0.64871525152328    1.14764772117001   -0.56349458613628
O           0.02616976172529    1.13696541850319    1.73298811888991
O           0.54060127795614    3.04858790452661    0.33595836162057
O          -1.76792954134084    2.62703558488908    1.01014391355037
O          -1.34132756503470   -2.30105693901836    0.37326417660008
H          -1.75856587329031   -3.15587287114927    0.26290436312669
O           2.19403892277906   -0.79842909083792   -1.34181313793251
H           3.08509849173357   -0.97697498103539   -1.64479360900209
O          -0.65884958673207   -1.16673716462915   -1.86272536502738
H          -1.19566386200949   -1.92832449986746   -0.54235193875702
H          -0.80566691283547   -0.26442361018163   -1.51701837109747
H           0.29565208402847   -1.22485755911632   -1.99268689573200
O           1.58909332374519    1.68992566984485   -1.81177269613968
H           0.65311369993865    1.56026977741314   -1.54980663216730
H           2.01980973676871    0.16498306164449   -1.54814977565253
H           1.85522187561411    2.42315875152345   -1.24480995547632
O          -2.41897151764231    0.07871778227351    1.69447180393777
H          -2.29764483679957   -0.71692379978190    1.16037518426182
H          -1.52617128499650    0.34305397442329    1.97108549613012
H          -2.32929663977967    1.85360303844880    1.18220634605127
N           0.99623106971404   -1.13066162354249    1.06442260428220
H           0.15077486387871   -1.72100350142653    0.91539972305191
H           1.52280015422050   -1.04489013761640    0.16660689817522
H           0.63361263002380   -0.13923509973232    1.34528570993214
H           1.58176536940198   -1.50600744335641    1.80265258784389
