    26
        -50.46116092  Gyration_radius:  2.45265548064 Dipole_moment: 8.898
 S           1.47671862344710    1.43970175267954    0.52312344353325
O           0.55281794307555    1.18921458670661   -0.58782195696543
O           2.84776044239254    1.25283353777158    0.16507829469389
O           1.25666784450455    2.92171454913951    0.96793259476167
O           1.06945402736351    0.59111667998902    1.67152995879576
O          -2.62806904991150   -0.18022349979498    0.54599373132084
H          -3.57546131760771   -0.31027946844515    0.49571155318086
O           0.47206727279548   -2.24701427569810   -1.40618039133735
H           0.79818167536043   -3.08114050634152   -1.74605265539904
O           2.16716936823769   -0.35040421385941   -1.96084763451161
H           1.55508089925437    0.35081102848038   -1.65271837014231
H           1.16036925354178   -1.56215419194874   -1.64776659628594
H           2.95750716785255   -0.16816888467404   -1.43920640808105
O          -1.17137773426168    2.02686426144246    1.80089182267019
H          -0.43643459124033    1.43114881978801    2.02110090681308
H           0.31483529372227    2.95255090589213    1.20209949525451
H          -1.79832159580498    1.48787139513532    1.30142589634018
O          -1.45503252072717   -0.08117003619931   -1.77032600515778
H          -0.97954857981909   -0.90327014232574   -1.94202064857073
H          -2.29820701104743   -0.08009816259789   -0.39196751501233
H          -0.76732768066440    0.54104533228481   -1.46181334933840
N          -0.31121118943540   -1.47268648821120    1.06806571902325
H          -0.24613380146715   -2.17709153720506    1.79489375115001
H          -0.00644466703115   -1.84982867854079    0.14319000785786
H          -1.28096661189225   -1.10027492214959    0.98815730327857
H           0.32590653936291   -0.62106784131676    1.31752703212656
