    26
        -50.45479404  Gyration_radius:  2.47175893593 Dipole_moment: 5.880
 S          -0.13545853568553    1.77723141275735    1.11695168686687
O           1.26335392856435    2.36365056801455    1.30986414722334
O          -0.28246710427682    1.35950445086058   -0.26594628408378
O          -0.13645239694915    0.50793729170611    2.00139462573330
O          -1.13098585071447    2.67582861113691    1.58715565234804
O          -2.30966218851330   -1.52554201557621   -0.58991444630787
H          -3.06583491597949   -2.11003876966865   -0.52219662984237
O           1.74777114237774   -1.36155563040679   -1.38251624061648
H           2.05983723557819   -2.08142008912456   -1.93242073284708
O          -2.90882869602179    0.98128405511574    0.10577288787802
H          -3.06568613760046    1.45830392382196    0.92496500118837
H          -2.03059663178898    1.28513866530277   -0.18103375491246
H          -2.61832521397198   -0.63560736824761   -0.30390074447064
O           0.06554601691541   -1.68248868892265    0.73738616338684
H          -0.03030525145083   -0.37240564015027    1.48845287369507
H          -0.80178381525611   -1.73331286791122    0.28979997060223
H           0.72928417545371   -1.61228090865239    0.02280626729656
O          -0.44480446900296   -0.33445153422702   -2.36293020072597
H           0.97923260094210   -0.95073952774187   -1.86781381000085
H          -1.17142250747900   -0.85595362735326   -1.99128351350561
H          -0.39515024527473    0.45221078455807   -1.79534361589025
N           2.79120913088117    0.41290762486633    0.69468321846284
H           2.47087347796290   -0.05613540766359   -0.15050071352980
H           3.76202805157138    0.67025434919869    0.57353929547004
H           1.93782371696606    1.60925724372173    1.02913468353273
H           2.72080448279054   -0.24157689539886    1.46389423303609
