    26
        -50.46116096  Gyration_radius:  2.4526747907 Dipole_moment: 8.899
 S           1.98147861028849   -0.23496536086071   -0.73855980184152
O           0.95976332267917   -0.83060068049891   -1.63643131380371
O           2.99948661689271   -1.37425337914690   -0.40935344277782
O           2.67491884486779    0.85620847700184   -1.34794821334847
O           1.33131236117433    0.13008342615596    0.52425721252678
O          -1.74845927011665   -1.73555260272746    1.08007426957712
H          -2.41014990115456   -2.16124048953541    1.62590414737396
O          -1.39700629402498    2.30125667291405   -0.04702890821993
H          -1.84211348664176    3.11517584059261   -0.28594010953500
O           0.77226390142791   -2.84978062746738    0.09188483156251
H           2.44611652580268   -2.06879449351138   -0.01664364398294
H           0.01372055904868   -2.59639243705182    0.63357267132797
H           0.71047113958786   -2.30550238937651   -0.71027215921393
O           1.17476600002544    2.69837392269842    0.03419436139111
H           1.34684044518549    1.81170854029249    0.41579541292583
H          -0.41958638253545    2.51483948732471   -0.03226072472159
H           1.74320360839833    2.69378261137586   -0.74476505273396
O          -0.77088399360138    0.43808309116069    2.11489860331526
H          -1.39037628323312   -0.96459950520139    1.60540105946745
H           0.10755509421244    0.30791979681763    1.70661931341858
H          -1.13277535849385    1.21453697405343    1.67039569733493
N          -1.45781802697047   -0.18625494652743   -1.11664623997898
H          -2.04755254166124   -0.30391606085450   -1.93339856213590
H          -0.42043049157889   -0.41511025207601   -1.37103870837506
H          -1.49819915291405    0.79259149098860   -0.75501532230620
H          -1.72654585666695   -0.84759711654459   -0.35769538724767
