    26
        -50.46116094  Gyration_radius:  2.45265699908 Dipole_moment: 8.899
 S          -0.85909908383125    1.76775182174014   -0.81501805939638
O          -0.52646090333973    1.90252686181814    0.62581417493740
O          -0.09108480995027    2.64874645404336   -1.63773085394384
O          -0.71693916226783    0.35788990702785   -1.19274485190918
O          -2.37500946011962    2.12174606468781   -0.95423868425198
O          -0.95613474365579   -1.87068439630038    1.68007550177871
H          -1.18298813022179   -2.69353217297703    2.11416033019974
O           2.52495831629765   -0.82652791274629   -0.43689256207237
H           3.47551240002962   -0.91090126028670   -0.52046337472664
O          -2.68504158235857    0.43195655797230    1.15251367549481
H          -2.81247160819999    1.49107764048256   -0.35957359137489
H          -2.31890960610781   -0.45686411798272    1.24721337677245
H          -1.92791653735442    1.03412052589993    1.23997456463619
O          -0.05177910616195   -2.17068382701407   -0.73720726712252
H           0.90403749190959   -2.03856491408255   -0.75736563514754
H          -0.69822372960761   -2.09836927827413    0.74188205615591
H          -0.42419008779654   -1.32124383447113   -1.04546559619576
O           1.59570745276051    0.61536959035395   -2.39541452752542
H           0.66429041710710    0.42407873436599   -2.15623224947152
H           2.22798389585064   -0.26668439822010   -1.21120471816225
H           1.60535970989478    1.57959095562135   -2.40327415145869
N           0.94703792113362    0.04739616499410    1.58350877625534
H           0.26819714678300   -0.71208357248583    1.80240623443476
H           1.61996329307358   -0.28644597319370    0.85809508811942
H           0.36432683828547    0.86791188591458    1.15862611401700
H           1.42887368784912    0.36242247311005    2.41855623995637
