    26
        -50.45479409  Gyration_radius:  2.47168990417 Dipole_moment: 5.884
 S          -1.82379436470228   -1.01170987987413   -0.27900252352874
O          -1.46360053813480   -0.81733753112332    1.21292641095567
O          -0.66329228750526   -0.64539056216531   -1.07117156090726
O          -2.29821186002985   -2.33664840152929   -0.47635618031968
O          -2.93493570466553    0.00825129581790   -0.52949633917062
O           1.00872468052095    2.39868339511489   -0.22499911745387
H           1.69580311969654    3.06561709919910   -0.19224514270404
O           2.37816748744512   -1.42314249867627    0.57030612574063
H           3.06356933291640   -1.92817187766735    1.00988488643247
O           0.69942152790968    0.43756750635371    1.64194423616263
H           1.36592869784637   -0.21454158033343    1.34939297918525
H           0.78857494516895    1.19878031345483    1.03468227360567
H          -0.60268448145301   -0.28845554266979    1.38088015201564
O           0.49458956924366   -2.99061113582578   -0.48929912619915
H           1.72707539713306   -2.07653626444126    0.22649251341884
H          -0.24845573760002   -3.50506463935287   -0.16310753507171
H           0.08070877640869   -2.22441199447587   -0.92222907794423
O           1.80476364277270    0.31996874189280   -1.59156205637736
H           1.33584378253234    1.68924613074631   -0.84525572483903
H           2.25434984712214   -0.25782991816188   -0.95738619519427
H           0.90805209055965   -0.04673877936863   -1.66120476430950
N          -1.87558964470720    2.20850487856457    0.21548021431638
H          -2.39499181680841    3.03121337845142   -0.06154100266323
H          -1.84392420925988    2.16796132691052    1.22659611928052
H          -2.53515535862495    0.94565953971962   -0.27560302733807
H          -0.92093688378959    2.29513699943862   -0.12812654709424
