    26
        -50.45305795  Gyration_radius:  2.45617667381 Dipole_moment: 10.324
 S          -0.34809427616738    2.07935291309674   -0.34940490855607
O          -0.61043397682697    1.50658359355947   -1.68925640794166
O           1.20761899740532    1.79943405199244   -0.20150330629611
O          -0.61525921015799    3.47142812145348   -0.23926874659005
O          -0.98898228363658    1.24285304929670    0.67145149424854
O           1.93965601417593   -1.13070176340514    0.94682268719530
H           2.37858702212354   -1.92697403922514    1.24896332435498
O          -1.65735085497124   -2.08586179282495   -0.77975171633078
H          -2.23123481562474   -2.78380393435304   -1.09651345345441
O          -2.86227284493130    0.21128173448652   -0.82962726318327
H          -2.34483239279531    0.63095503897523   -0.10472683995926
H          -2.20258528233825   -1.24088553146739   -0.80138295013693
H          -2.55205136177984    0.68819682658619   -1.60888897066991
O           2.34676626739196    1.33721700711152    2.13457772081663
H           2.30091945397525    0.41406254647196    1.82512602939337
H           3.25210935610185    1.62989547173807    2.01488636359959
H           1.46507679772375    1.83804233981228    0.74330944731918
O          -0.53432574716663   -1.16819064388669    1.65170499368993
H           1.00203407728241   -1.17171288825635    1.31588615603476
H          -0.73941162928968   -0.22471971008386    1.46993335426460
H          -1.03493498095217   -1.66483417142556    0.98884193706100
N           0.58575062918296   -0.71177709516547   -1.46852072359368
H           1.22152289262220   -0.68857237104881   -0.65214908131655
H          -0.18177071641528   -1.39031280713280   -1.28893200039434
H           0.10468823123530    0.28793944587140   -1.59066010097754
H           1.09881064383006   -0.94889541218295   -2.31091703857358
