    26
        -50.47206690  Gyration_radius:  2.43984343313 Dipole_moment: 6.623
 S          -1.44924363977705    0.72831525386878   -0.20955609587748
O          -2.54778869115252    1.64950183775285   -0.82673754644278
O          -2.09489269909933   -0.36974465452280    0.48775300172683
O          -0.65881257921727    0.20307151907657   -1.34394375993853
O          -0.63522691117139    1.55975378394853    0.65007164650469
O          -0.30709757494309   -1.82472144551491    1.82725702159681
H          -1.11794471094086   -1.39262200657916    1.48635198752571
O           2.90712930559999    0.31921698702771    0.30002581145728
H           3.83301771281182    0.56211406589176    0.26962973792824
O           1.38475962296172    2.03428989420954   -0.96864073401184
H           2.40802479940502    1.03670300210422   -0.18069718882397
H           0.68943975106252    2.11832900156294   -0.28395349429397
H           0.93387396949024    1.54901832189286   -1.66934611100388
O          -3.22291964085473   -0.65681871280340   -1.93737066132774
H          -3.08130350212802    1.03372441083248   -1.36508346953329
H          -2.31999557088900   -0.64591777097704   -2.27623172102058
H          -3.13825839947847   -0.93226255511265   -1.01159853380483
O           1.01202128794216    0.38665523327069    2.46285454811250
H           0.15586160303365   -1.11543275538511    2.33221232714739
H           1.81864466513485    0.40388812108592    1.93041604905776
H           0.37318029262342    0.94169300613830    1.98205871451212
N           1.03351675558378   -1.54068368162488   -0.35081713155990
H           1.24164383290031   -2.35415166317316   -0.91897824641012
H           1.89302217313900   -1.00912744414065   -0.11894381209439
H           0.36902647681014   -0.87952729456735   -0.84755515631758
H           0.52032168115241   -1.80526443426058    0.58082281689223
