    26
        -50.45305789  Gyration_radius:  2.45628565011 Dipole_moment: 10.324
 S          -0.37598810330790    1.91789257934751    0.86277969168675
O           1.04922710851064    1.71383133266810    1.20730267910137
O          -0.95495580842624    3.09488086044627    1.41149021561664
O          -0.29059927899767    2.02782096709218   -0.71877169433032
O          -1.12131081787508    0.68132598929924    1.12349140911175
O          -0.35834746317353   -0.79506438720939   -2.27478795707601
H          -0.34517758461777   -1.49824884514790   -2.92544744762784
O           1.26958563158422   -2.13150334699733    1.24748604281786
H           1.74813244602296   -2.83158925804822    1.69216886273219
O          -1.22320833672311   -1.69535586256298   -0.02500527833568
H          -0.77385271851171   -1.19015522312994   -1.44525631138804
H          -0.48183784839778   -2.09366930379498    0.45268583495087
H          -1.37497024602065   -0.83095255305420    0.41676440548432
O           0.46924106027919   -0.32910206847259    2.93320954392401
H          -0.30569929944897   -0.01645856171889    2.41255959960446
H           1.07571227426737    0.41878112026925    2.87231998362417
H           0.96898379883596   -1.49498208992275    1.96593177360683
O          -2.24522112076830    1.23232081924220   -2.30508653729400
H          -1.65761121513601    0.46313696741657   -2.41921023049263
H          -1.17182632203431    1.86071825632272   -1.11340148543437
H          -2.14998080072025    1.77839962112027   -3.08756698294814
N           1.66460568633617   -0.06897768721653   -0.47965318908567
H           0.94262799084693   -0.11543289718791   -1.21988687882455
H           2.57937902527491    0.09590055647268   -0.88600585540623
H           1.41389853609826    0.75618095509700    0.22836547708537
H           1.64919341610377   -0.94969794033404    0.07352436889808
