    26
        -50.45305789  Gyration_radius:  2.45628889179 Dipole_moment: 10.322
 S           0.35406901432611   -0.69514954391048    1.98879087947695
O          -1.02362482416105   -1.26085563346044    1.43868334760965
O           1.31968795957097   -1.50884199244670    1.21598714903710
O           0.41095539181821    0.69634956018970    1.52719313568686
O           0.43286277242614   -0.86384379507372    3.39831201429857
O           1.94099351018897    0.76069023524250   -1.83376254328558
H           2.63574179987242    0.97833900032262   -2.45566495261551
O          -2.07478685206402    0.13580661589931   -1.26926847265858
H          -2.55728147621666    0.39050705635320   -2.05688061990492
O           2.85137467392976    0.67155067355310    0.59411695376361
H           2.36403031279068    0.77594307474609   -0.92137029788764
H           2.97084437529798   -0.25681296384920    0.82825648569550
H           2.00559758237109    0.89631136839646    1.04514745930070
O          -3.20018794934663    0.22230079076001    1.25972955912486
H          -2.94142958923307    0.24818535001300    0.32035210035375
H          -3.91935413300149   -0.40734927732615    1.33671857111447
H          -1.74472806455067   -0.62389521441700    1.62461668094652
O          -0.35073635270524    1.94921858037334   -0.67027175878468
H           0.45312121081796    1.79074471860696   -1.18535111677846
H          -1.47386689812946    0.91433440628653   -1.04621183191355
H          -0.13652102245892    1.63779815458999    0.23661827818286
N           0.32449716014782   -1.29930720423878   -1.10097782622719
H          -0.64701765154156   -0.94851057068128   -1.03468803107076
H           0.35015151606037   -2.18013600353408   -1.60356650365174
H           0.91963027858894   -0.58227632619857   -1.56301688748850
H           0.73597726520136   -1.44110109019038   -0.07349178232206
