    26
        -50.45313282  Gyration_radius:  2.5742724715 Dipole_moment: 5.690
 S          -0.93079732836443    1.29710290795460    1.47492237881578
O          -1.30387713598399    2.34168773374924    2.35006195045369
O          -2.15548780281104    0.38071985727419    1.23158511834161
O          -0.41937047711577    1.69405771991767    0.17445621211992
O           0.11930487028939    0.38853477336234    2.13852985598794
O          -1.40299391018982   -0.44012664201024   -2.58838081434651
H          -1.85577623401350   -0.70514950961290   -3.38975379515982
O           1.19795619437742   -1.14556864419391    0.42730212289980
H           0.53934947629087   -0.23739009746825    1.44419696894861
O          -2.56332510697720    1.60979445194143   -1.38638246207334
H          -3.23054907501614    1.35587465175173   -0.74355098421163
H          -1.77037463156498    1.83584734829796   -0.85954379950696
H          -1.87660575425876    0.35990235333774   -2.24452735011046
O          -1.41536785483710   -1.62620197031664   -0.14941408426924
H          -0.48348216788375   -1.76532669346498    0.08256242883363
H          -1.89402690296577   -0.44999780998307    0.69992527603493
H          -1.42081128469357   -1.32355362907461   -1.08064964342894
O           1.09769959767084    0.42921372958230   -1.65862118823810
H           0.68252896112441    1.11473143639161   -1.10690301196283
H           1.28074754724292   -0.59873618842228   -0.40258151480833
H           0.37819267937240    0.08801488913895   -2.21116370532201
N           3.61112967940011   -0.92206062607556    1.60719195052012
H           4.09362665649708   -1.74177858638558    1.95253415290477
H           2.10837612325199   -1.19786875687546    0.80922647658725
H           3.36014816138020   -0.34530004645633    2.40112430446902
H           4.25378569977714   -0.39642267235842    1.02785314651908
