    26
        -50.45313294  Gyration_radius:  2.57494411292 Dipole_moment: 5.705
 S          -0.10479863433083    1.30904705003962    1.73438049016590
O          -1.21887605385380    0.62816771229578    1.09734994412238
O           1.04309796029357    0.29554699927615    1.88870400343107
O           0.42632879834984    2.36518933692761    0.73371509482144
O          -0.37583536076822    1.93997915053550    2.96914951196988
O          -1.31660987651162    0.87873835767937   -2.52033538840694
H          -1.62398856678768    1.15463027831880   -3.38452866559473
O           1.18634896014957   -1.22382075742134   -0.13987031815626
H           1.10355443438328   -0.30419445085443    1.05978929266477
O          -1.35129713390257   -1.31237668644192   -0.76752931054916
H          -1.54733150459943   -0.73509990041927   -0.00917553094039
H          -1.44986787357819   -0.74136819056103   -1.54443333384925
H           0.24172928750266   -1.38791802107369   -0.41416508772015
O           1.13722595526044    1.18186991650802   -1.40600581280747
H           0.74462630885414    1.92623050827824   -0.13050798668943
H           1.41305643377532    0.29440333132829   -1.12685745509768
H           0.31662505582734    1.05974281956444   -1.92611304838169
O          -2.18344470335582    2.44737573654190   -0.57591706348250
H          -1.59847219529874    3.18404278374391   -0.38098899273752
H          -1.73426960668667    1.48965965415333   -1.86088123187651
H          -2.00952017092176    1.78728038320283    0.12514923609994
N           1.81457900982662   -3.36259438550540    1.37595202135240
H           2.67841040620203   -3.86718492049567    1.22322977574299
H           1.05533329276188   -4.03218623670020    1.39387932657758
H           1.86417979717132   -2.91958474766623    2.28553139467396
H           1.48921599023498   -2.05557573125371    0.30047912466602
