    26
        -50.45313317  Gyration_radius:  2.57405656603 Dipole_moment: 5.679
 S          -0.20081125133933    1.66763723450706    1.37735742772338
O          -0.86846597499019    2.34934366528548    0.15739067073824
O          -0.29759419318141    2.52693292600173    2.49472078227061
O          -0.79740975869252    0.35079235355009    1.52052308122566
O           1.27118319930529    1.47796150410533    0.96968491814028
O          -2.42274012613030   -0.93438939947250   -1.45706295638560
H          -3.13919518492236   -1.20595343309645   -2.03188599157244
O           1.51435301572749   -0.45673155246445   -0.65621177472637
H           1.35881077935517    0.70492872389576    0.30264401037798
O          -3.22527492983043    0.65926817935794    0.49506521011711
H          -2.42975001619941    0.50093054099031    1.04223595342282
H          -3.19648991849738    1.59290090921790    0.27061136863466
H          -2.82791753921747   -0.39013858470215   -0.73444694611126
O          -0.42650258042576   -1.97785147424332    0.21649858944467
H           0.85640855211118   -1.14209950512289   -0.35331601036436
H          -0.62079531776960   -1.31599392570526    0.90273694863445
H          -1.14487664787735   -1.88407377148420   -0.42734948484629
O          -0.48124669823068    0.90555424342170   -1.90353128538728
H          -1.17471461042628    0.21480469047468   -1.87544219104041
H          -0.71428668599789    1.81152021164241   -0.69605612412942
H           0.35966061197492    0.44952197027361   -1.74069609425443
N           3.83893937046980   -1.23120538831765    0.46767299969035
H           2.40186388960882   -0.79116836960871   -0.37715172158878
H           4.68581001352336   -1.29623162488773   -0.08252704901280
H           3.95794478685765   -0.48639051070502    1.14384371993258
H           3.72309722480542   -2.09986960290643    0.97469193906681
