    26
        -50.45313259  Gyration_radius:  2.57353206556 Dipole_moment: 5.669
 S          -0.87844751840220    1.52791640445120    1.26762637374417
O          -1.35710766000934    2.32912465602088    2.32829609236153
O           0.59723275926616    1.85095950457740    0.97316132571853
O          -0.99463991657979    0.09009571156482    1.43937318659352
O          -1.63617640528874    1.90267164962612   -0.03004728664259
O          -1.81751049722529   -1.76204694184210   -1.56826866506258
H          -2.34414438200072   -2.28278283629026   -2.17568346984379
O           1.62854077358171    0.08069418129579   -0.52606590410669
H           1.00147962709972    1.13991862973321    0.35557152925966
O          -3.28348864274050   -0.49503053517948    0.23147143230006
H          -2.53151487631612   -0.35114236505946    0.84073689436444
H          -3.55959765647128    0.38356291843099   -0.04191820496642
H          -2.44568254571574   -1.37376014253042   -0.90704431481535
O           0.26780658257578   -1.99723953674011    0.29423475803709
H           1.22573136112006   -0.78268091949570   -0.23170626369526
H          -0.20024334816259   -1.42631021197033    0.92796376877495
H          -0.38184815374184   -2.17764465121440   -0.40206073247462
O          -0.60435450800026    0.62849038698311   -1.97789019213430
H          -1.23553310229815    1.42901503424036   -0.84019218835817
H           0.32583804057416    0.49898120664706   -1.73384072786152
H          -1.01539100890718   -0.26010863986608   -1.96042045244084
N           3.97119472429076    0.20485905397578    0.80089081093850
H           2.54978843696698    0.08621736782584   -0.16737567315849
H           4.82585734244407    0.44947749219050    0.31744542642809
H           3.75419318368553    0.94782180790130    1.45426383770819
H           4.13801739024596   -0.64105924527761    1.33147864933052
