    26
        -50.45313305  Gyration_radius:  2.57354230335 Dipole_moment: 5.665
 S          -0.85384253606416    0.20276912448494    1.98564612336913
O           0.55958743318692    0.81055974668742    1.94152776406209
O          -1.50979282578726    0.50735766274697    0.72571845290105
O          -0.62874642296849   -1.32880905916267    2.03320609790355
O          -1.52869330306418    0.60548672912713    3.15983406529754
O          -1.16259117639771   -2.02848022560095   -1.84469006882800
H          -1.42194584590059   -2.73354327862111   -2.43889300465945
O           1.57557980737230    0.56011305400223   -0.37169004714832
H           0.96799823252221    0.69221918568632    1.00912853378352
O          -2.84497914644519   -1.71791838534664    0.17204630888206
H          -2.62527260231161   -2.24379352470242    0.94539410597158
H          -2.53528563791691   -0.81312811090912    0.37885914743146
H          -1.87591101279130   -1.95561275479415   -1.16028538944882
O           0.79246454636926   -2.01211668342289    0.03453419121793
H           0.16885569929740   -2.09909871258667   -0.71536939949703
H           1.34381300831245   -1.23824057888384   -0.16223255144235
H          -0.04116019646560   -1.63970540720795    1.25888038872437
O          -0.60712487052397    0.72164255611656   -1.80439308441845
H          -1.12087902693867    0.83914854808120   -0.98654953360308
H           0.81963195999006    0.68905641367784   -1.00908198174620
H          -0.80199644364585   -0.18369809464154   -2.09037898258163
N           2.73223181201804    2.99012410969889   -0.22014572761948
H           2.10355928599398    1.39524904747725   -0.40521720590384
H           2.28226356750926    3.64518627627834   -0.84743963237652
H           2.47823341156857    3.23877938503830    0.72836996299257
H           3.73400226308848    3.09645296678181   -0.31677852326343
