    26
        -50.45313271  Gyration_radius:  2.57379888931 Dipole_moment: 5.679
 S          -0.03934489402953    1.48036005913848    1.58896469272662
O           0.47790031030591    2.10408977957797    0.28051151140845
O           0.22804655080433    2.33406732107440    2.68252940674985
O          -1.57230677155624    1.36789453609418    1.39933412154484
O           0.48812451676730    0.12972305851624    1.67830583326357
O          -1.65295303011984   -2.45707227879945    0.30814579463966
H          -2.24399440018432   -3.21078730319087    0.30110955840000
O           0.50786425503113    0.38697342996052   -1.58912992365618
H           0.47282150798840    1.40874801696925   -0.47233856111652
O          -1.54277041678353   -1.26355562931112    2.66543201121159
H          -1.63870579413732   -2.11457205371681    1.23822114433125
H          -0.69974030230107   -0.80705813819857    2.46967145428320
H          -2.19040938277663   -0.56271868696410    2.77618650056679
O           1.01977778248588   -1.75288929460046   -0.17482774993062
H           1.04602427191166   -1.20257609204716    0.62714660970892
H           0.18137221237210   -2.23558982360129   -0.11546458878828
H           0.77831050469934   -0.46994698023212   -1.15671318544386
O          -2.04054406979247    0.02531612724306   -0.71268467576608
H          -1.97543276926337   -0.91527113471681   -0.44834292896049
H          -1.80154204114327    0.85524098877856    0.54733382698630
H          -1.28280299735856    0.19399342198182   -1.29488113048314
N           2.80836805903124    1.37955363998606   -2.58285848585180
H           2.85234163405172    1.72681483932639   -3.53231978351001
H           1.30311540916159    0.70362687183430   -2.08385852181195
H           3.57570725603419    0.73347426636056   -2.44587310775113
H           2.94077260880083    2.16216106853643   -1.95359982276073
