    26
        -50.45313277  Gyration_radius:  2.57377094985 Dipole_moment: 5.675
 S           0.05331223785738    0.71889885847770    2.04838213059476
O           0.23285437400784    1.43852313264077    3.25091600235093
O          -0.25435537421056    1.50303129243017    0.86482238078019
O           1.29741791971592   -0.13319587104765    1.74054951289568
O          -1.09428958093165   -0.30365365716305    2.23839348268448
O          -2.61272062261248   -0.02458121442900   -1.42849300598009
H          -3.43645384917667   -0.15859616608819   -1.89854921741461
O           1.23482859888554   -0.99579644510740   -0.64623559799105
H           1.25706360587807   -0.48960517159915    0.78051231960556
O          -2.90462817714280    1.44157591867390    0.75304683328273
H          -1.95334497229249    1.66282996952175    0.81245950193116
H          -2.81426366714924    0.57469187366382   -0.66507053427684
H          -3.09510945715011    0.92871754975105    1.54273621614610
O          -1.25058217710250   -1.75597401112765    0.15302691404423
H          -0.34875233106575   -1.78780160117452   -0.20368487212004
H          -1.17372497139731   -0.92223890555201    1.43078257940507
H          -1.77857517286446   -1.23987475806895   -0.49018567483553
O          -0.02356328652182    1.00139260636298   -1.77274937361530
H          -0.05972747323236    1.45035912339882   -0.91028143699385
H           0.83606898921564   -0.25674348627791   -1.18408519360947
H          -0.92817130798089    0.68912644353116   -1.92637402164312
N           3.89430830587803   -0.65969272149967   -0.92769102774786
H           2.20317490622792   -0.98402025146988   -0.84521520336706
H           4.12480527367082   -0.34885823792720    0.00836663803981
H           4.49204584211421   -1.44368210771027   -1.15597414122253
H           4.10238237737697    0.09516786779386   -1.56940520093948
