    26
        -50.45450921  Gyration_radius:  2.45183507692 Dipole_moment: 5.288
 S          -1.04367803009525    0.40527683254662    1.76249512473638
O          -0.74067038610909    0.49036435999845    3.14517880594452
O          -2.56920321692439    0.35659775911335    1.52759118918610
O          -0.59653170853761    1.71523749300616    1.09183162717006
O          -0.45618612262505   -0.71920782064129    1.05711900790328
O          -1.16997124611638   -0.76033761230279   -2.39126269648102
H          -1.25149361517968   -1.07616608988716   -3.29184864270212
O           2.39962869785917    0.59676998272013   -0.84903265496202
H           3.17944381805862    1.10746751061372   -1.07019274146107
O          -2.75823034125683   -1.45398098729999   -0.29525057393766
H          -2.75945884517811   -0.30644523852358    0.79620137750615
H          -2.34208203502364   -1.12954229146635   -1.11916660975075
H          -2.08967364108846   -2.00406242407113    0.12619494311148
O           0.86929021318216   -1.70708059432661   -1.07605474643381
H           1.58942007765566   -1.06368700171779   -1.15661840331382
H           0.46118830957875   -1.50515553943674   -0.21585327280704
H          -0.37908219496724   -1.21976617413825   -1.98690329878620
O          -0.09402737607516    1.53726608466206   -1.37593148132343
H          -0.46025996463314    1.65607049105955    0.07396073333272
H           0.83627303559821    1.23706694209086   -1.30608594968715
H          -0.58770413643894    0.81005506373402   -1.79720883723103
N           2.03020594961672    0.61505100427259    1.79192056914648
H           2.72327318380380    0.39431604971339    2.49740920781106
H           2.32053206988397    0.60902874009465    0.14873085860350
H           1.29214186294217   -0.07862200915527    1.85957067942527
H           1.59685566206636    1.49348544933753    2.05320578499720
