    26
        -50.46185353  Gyration_radius:  2.44961504481 Dipole_moment: 8.677
 S          -1.71609097699249    0.96995662660319    1.00876491664805
O          -1.29107652739070   -0.43013353221411    0.97332499877795
O          -3.18578880792918    1.02092875665381    0.44750116137705
O          -1.70745882638075    1.54728492128004    2.31381868348896
O          -0.89440016044053    1.73451038019784    0.03967375853894
O           2.46864971380298    0.20804827406696    0.73546355736713
H           3.38356418622385    0.40387872218350    0.94227860358918
O           0.35364438217614   -2.20850486096816   -1.77458002532858
H           0.95946021606434   -2.83194992561062   -2.17633694684358
O           0.97315799755555    2.00934427859529    1.89399442200561
H           0.38675889843776    1.83840314925266    2.64045250187149
H           1.92360763713864    0.85134361003954    1.26844827903133
H           0.34094474924138    2.15207762031010    1.16266937218665
O          -2.01603997607351   -0.58515399412423   -1.52867697797457
H          -1.78621628360946   -1.41071840378525   -1.96382503757693
H          -1.72234603694656   -0.69053491286375   -0.60074286657957
H          -3.14219257675090    0.62164181696131   -0.42787218548723
O           0.79164108900573   -2.07638999502915    0.80258158453254
H           1.50631870655247   -1.43531461990942    0.92185929401947
H          -0.02086815724688   -1.58752412474861    1.03676471995101
H           0.46911635424173   -2.30355711272960   -0.78810474055444
N           0.79741462173060    0.43866855418972   -1.40960941554303
H           0.49515216023604   -0.52409801071193   -1.68817146806957
H           1.58128735787830    0.35979992711712   -0.73008704993770
H           1.05588539705097    0.98985418700060   -2.22086683329272
H          -0.00412512757527    0.93813867824526   -0.87872228619668
