    26
        -50.45450933  Gyration_radius:  2.45187442787 Dipole_moment: 5.292
 S           1.33357554884165    1.13938621284292    1.13440949681165
O           2.66612170766695    1.00832540435001    1.60133015673573
O           0.82559083006310    2.58857973682793    1.29595655847001
O           1.10882271921923    0.74797591465414   -0.24534623334666
O           0.41974879899176    0.31056781887538    2.05265770746147
O          -2.25845010683186    0.99422165988702   -1.25726656337080
H          -3.02977664814601    1.02820923671943   -1.82420079658553
O          -0.49495483634229   -2.56162498534501   -0.16080303402320
H          -0.69619693444966   -3.46060081518931    0.10205386052440
O          -0.35173777834525   -0.57244417229483   -2.09122485120582
H          -1.59193736309426    0.39465186834568   -1.70032725756364
H           0.31764099968513   -0.11552577655859   -1.55227747938296
H          -0.46873522950449   -1.42872478787713   -1.65305796583377
O          -1.74686933047039   -0.45099536617174    1.00440035446781
H          -0.49216652877885    0.06164577334353    1.64671087250089
H          -2.03278508928359    0.14117083832847    0.28489457318039
H          -1.41306142460989   -1.26679553528440    0.57600153567952
O          -0.40591603949466    2.95982933749045   -0.93578617555124
H          -1.19033902526791    2.37652606578149   -0.97564420950861
H           0.29036188043266    2.83300759877128    0.48064533233716
H           0.27764437531125    2.49862686233891   -1.43312498160732
N           1.90594207573482   -1.86740876301101    0.76956662759043
H           2.01944118373190   -0.98102111972351    0.28784301417493
H           1.81837629633535   -1.62957088055215    1.75114150298095
H           0.42244579501870   -2.35874235037504    0.18424871566681
H           2.76721410358545   -2.38926977617468    0.65719921939610
