    26
        -50.45731621  Gyration_radius:  2.44440211178 Dipole_moment: 6.860
 S          -0.08402731977825    1.50887485961378    1.31139670562748
O           1.17008462371589    1.88352994152549    1.92680971698019
O          -1.07807031601975    2.70578662686828    1.40603802259112
O           0.12608524772066    1.28078520451299   -0.14127298451515
O          -0.70100196960234    0.34974905784759    1.93229276879524
O          -2.26869075969505   -1.17237277835968   -1.29052894072667
H          -2.86266315417182   -1.58182497494832   -1.92041116090312
O           2.00199114475667   -1.77741579723659   -0.38135513968122
H           2.44887541066599   -2.58468245561943   -0.12334513094749
O          -2.88475973006418    0.94376316371644    0.52425806381284
H          -2.37069044245047    0.50536148978144    1.22033185415861
H          -1.89298621725029    2.34107469363859    1.00463525577936
H          -2.79278834610709    0.35716431721277   -0.24248402610750
O          -0.36312552804451   -1.92098132902056    0.64440731960321
H          -0.46293476727950   -1.13852090525821    1.22900603166910
H          -1.09452714131887   -1.84203513738641    0.01129577945813
H           1.08055382125379   -1.84223283828981    0.02350979399071
O           0.09072691793354   -0.38360070323147   -2.24361225468633
H           0.03888519558942    0.32441342820246   -1.57472482243383
H           0.76151120272523   -0.99507234963324   -1.91952962508793
H          -1.47199118249194   -0.87995783431936   -1.79192657269942
N           2.58621395807518    0.77729071838875    0.06792430551271
H           2.57733889150110   -0.27010872124186   -0.01258028527979
H           1.61348859816456    1.08483538688897   -0.29239693612353
H           2.46620781268569    1.11735628983935    1.04726544626966
H           3.36629406948554    1.20882067650893   -0.41500318505670
