    26
        -50.45479394  Gyration_radius:  2.4718528615 Dipole_moment: 5.877
 S          -0.16347224115745    1.73608796252386    1.17567594771587
O          -0.23803211638672    2.02758042256083   -0.34185026382681
O          -0.24033109824226    0.29776220463261    1.35972403087376
O           1.23311393408074    2.21158716571881    1.57740093759729
O          -1.16676107563261    2.48670458988397    1.84622505159165
O          -2.30269473310646   -1.25978677720831   -1.05969908572932
H          -3.07280376180857   -1.46857391331083   -1.59019375056948
O           1.79597631191337   -1.73777644511107   -0.75658093628837
H           2.12480443809893   -2.51843587135953   -1.20426030923784
O          -2.89074532840896    0.36756378774351    0.97329512436455
H          -1.99153377065961    0.26812112730870    1.33023364930259
H          -3.08460377312617    1.30211582825956    1.08392748790891
H          -2.60970797696192   -0.65119574671221   -0.34947003440184
O          -0.31625973194445   -2.31194305805557    0.66899426467691
H           1.06460118551500   -2.04764842009973   -0.15323566440078
H          -0.28353469864150   -1.47190737609698    1.15553582400449
H          -1.07323147925523   -2.21703104322097    0.07228889987605
O          -0.01051766437544   -0.00799017631572   -1.83879035793543
H          -0.12149815945439    1.20598280175592   -0.94261947422574
H           0.69427688356756   -0.60224250451119   -1.51284000072169
H          -0.85175896983122   -0.47513782373700   -1.66757045326089
N           2.75578955874719    0.92368578759185   -0.01663784528975
H           2.47348180185746   -0.05188653631098   -0.09107018282978
H           2.63111373974586    1.35752609172726   -0.92283268045218
H           1.90789998928698    1.67812608025829    0.97502061365681
H           3.73642874616033    0.95871185206075    0.22932922761795
