    26
        -50.46138040  Gyration_radius:  2.45055821487 Dipole_moment: 8.996
 S          -0.61572700131386    0.75269385008315    1.93940496942943
O          -0.00756062125346    0.25274119228917    3.13500238108432
O           0.30417456691376    1.56990756756688    1.13374657660032
O          -1.17952629097456   -0.31985900647017    1.09275455873630
O          -1.79966460177510    1.69596186977099    2.33178456419047
O          -0.54627945472238    0.81749990353952   -2.57828300987855
H          -0.83012654596752    0.77501009130951   -3.49190289223559
O           1.94993539888750   -1.80911674648690   -0.37061307709334
H           2.68142700967024   -2.42746510918906   -0.38338775543601
O          -2.33016494003403    1.61256352243913   -0.33706927650606
H          -2.07415706750092    0.75628692757692    0.04407531247754
H          -2.15375854623097    1.98922837783039    1.47840749301032
H          -1.76855770368225    1.72511118034922   -1.11268860756977
O           0.69403223103477   -2.01551190306383    1.90090279312398
H          -0.17422938778534   -1.68838245159590    1.60272814013210
H           0.87575343658336   -1.41390862927511    2.63833211088488
H           1.52601624477134   -1.90299237520171    0.53125379152270
O          -0.73060254387251   -1.46178580960002   -1.30361496299419
H          -1.01789066302163   -1.13937980452137   -0.42813820439299
H          -0.74124289883150   -0.07316104583616   -2.17824319428332
H           0.14922566959947   -1.83354449237372   -1.15830312837098
N           1.58543394369097    0.82678303281766   -0.92123548777796
H           1.84713513901696   -0.17026481191909   -0.78745486270284
H           1.04356585405252    1.14459385543710   -0.01628178570473
H           2.40091895040825    1.41352625925047   -1.05516205538429
H           0.91186984233289    0.92346453527112   -1.70601441086326
