    26
        -50.46138047  Gyration_radius:  2.45047297817 Dipole_moment: 8.995
 S           0.51970449889534   -0.17301871447867    2.09892077938145
O           1.58530121600387    0.15662335415488    1.14030636837207
O           0.69371524963548   -1.46242274332396    2.69610758294322
O           0.59486178170275    0.91587056344363    3.21872561810226
O          -0.79266547424019   -0.02204274969046    1.43601341878367
O          -0.27652112407138   -2.08791231343426   -1.66700427322357
H          -0.31140694944515   -2.90107516237726   -2.17208687458954
O          -0.11068221609546    2.15164366400324   -1.72351128865478
H          -0.46274199245034    2.77307636216517   -2.36140434637006
O          -0.83768931077566   -2.60305563846405    0.82280722421606
H          -1.16325901692179   -1.71881819294302    1.07162496884881
H          -0.14120446411167   -2.73639141547308    1.48323653448141
H          -0.46305621176096   -2.34553650375867   -0.71788149268932
O          -1.78920018687376    0.25925178667937   -1.04871839876607
H          -1.57295617989821    0.17650586846870   -0.10033808580949
H          -0.85702130414236    1.53888135235003   -1.48132610776258
H          -1.51927011138344   -0.58062449564682   -1.44263571967111
O          -0.22113988195073    2.57197442820681    1.21763766128779
H           0.08374588133626    2.69040939110143    0.31062079092688
H          -0.66976375184538    1.71011636360942    1.22785246316803
H           0.47050335786898    1.74905722729735    2.73913611060605
N           1.46054180479951   -0.01772576594762   -1.38378268122173
H           2.39160650162884   -0.10652036657247   -1.77421420035935
H           1.52193914189802    0.03936101631903   -0.28536138286157
H           0.99976952845082    0.86146834613721   -1.68965458769418
H           0.86688919374909   -0.83909566182453   -1.61507008144386
