    26
        -50.46137967  Gyration_radius:  2.45097191281 Dipole_moment: 9.013
 S          -1.85865223627404    0.57815945872475    0.96505246309733
O          -1.60207171741404   -0.26178123513506   -0.22411786849806
O          -0.60225557462323    0.75676771248782    1.70867574504632
O          -2.48969664195138    1.82096938049472    0.63964314730845
O          -2.80471285880442   -0.23753687303413    1.90580290858870
O           1.78900395786389   -2.04698689824117    0.46981516288968
H           2.34679449078407   -2.80722143734564    0.30265972934983
O           1.32696394141187    1.52387852418771   -1.76923555924838
H           1.72772759031064    2.16037119599250   -2.36237481517985
O          -1.00152520407292   -2.22904296425699    1.47021939592037
H          -1.21828309291938   -1.70914928707515    0.67841712829924
H          -0.03825396031341   -2.25313017642381    1.50427903444306
H          -2.31248252918981   -1.05513529639812    2.07616065894148
O           0.48666272002712   -1.20506157853727   -1.63902982199120
H           1.28451918677586   -1.87394722440547   -0.37102349842159
H          -0.35848855703619   -0.95024714693599   -1.22248571162522
H           0.87024214309107   -0.37680922285214   -1.95605329224144
O          -1.25092186482152    1.88854021657273   -1.73515531338156
H           0.34759686768948    1.73008268392139   -1.76515434993488
H          -1.68503516304623    2.41745117778891   -1.04979297306071
H          -1.50833550256612    0.98696088755378   -1.46774752533067
N           1.74576725007438    0.63647193682260    0.76553902682664
H           1.72114028965622    1.02774644739667   -0.19696729432644
H           1.97326324208496   -0.37675428257933    0.73977993604565
H           2.38683434340296    1.14773212488870    1.36125531400784
H           0.72419886985844    0.70767186638676    1.17183837247412
