    26
        -50.46214875  Gyration_radius:  2.45495559208 Dipole_moment: 8.528
 S           1.14161330559186    1.29023748394969    1.26510027556620
O           2.48912319940982    2.05559304266436    1.03346587865310
O           0.87164572904349    1.27821972559572    2.67698845183403
O           0.12063789131558    2.01502370816528    0.49799019422073
O           1.30604784989196   -0.06373222398786    0.72288536795574
O          -0.08390314876142   -0.41084582777922   -2.75519715071344
H          -0.16250614711571   -0.87712298343251   -3.58789330596930
O          -2.09517722263071   -1.31707776950224    0.83806385642847
H          -2.91864279536501   -1.56174056504242    1.26275538263047
O           0.19126742014213   -2.01522955972170   -0.70065232174017
H           0.70505044441289   -1.39999385331828   -0.13994490760806
H          -0.66288253148232   -2.09515638890615   -0.25762713886419
H           0.12265556990634   -1.09775597949693   -2.06357051684358
O          -0.37894008002317   -1.02519038937869    2.77544248155192
H          -1.44274763773824   -1.17144877011023    1.58465260218110
H           0.00891768365910   -0.12223425230296    2.85122006013099
H           0.37390153364251   -1.58230967900101    2.56034897590890
O           2.20773681387168    1.02335564017388   -1.51197536597427
H           2.62124290684201    2.01870869094872    0.07713984368936
H           1.96553981868439    0.43237240733422   -0.77750839805695
H           1.54988959004202    0.85513263145089   -2.19505526221855
N          -1.61514360021841    0.75126013276957   -0.85018474699442
H          -2.39295499000855    1.35835227830410   -1.08230254164555
H          -0.86254487316701    1.31382512958204   -0.27864707687775
H          -1.91312890744964   -0.04057198216658   -0.24101219890544
H          -1.14669784249928    0.38832935320678   -1.70448242833933
