    26
        -50.46138078  Gyration_radius:  2.45027431494 Dipole_moment: 8.993
 S           1.19959257733287   -0.58907443983896    1.70715913693768
O           1.27655025422237    0.80540966889387    1.24619441661746
O           0.89103455102476   -0.52074659881983    3.23855311514759
O           0.04549350881276   -1.25001827778096    1.06248117614248
O           2.42557901360853   -1.30278829044572    1.51416741085720
O           0.68607975054719   -0.44738493453355   -2.55767672933405
H           1.04744222809456   -0.63014605398705   -3.42579105786128
O          -2.19406269841228    1.65245430176112   -0.25601284750975
H          -3.07618290876333    1.94237560229541   -0.49026335543207
O          -1.49476365628863    0.47558871194073    2.38648098187923
H           0.05759972764998   -0.02766379579066    3.28398968646336
H          -1.71400425839891    1.16296565393985    1.74691192132944
H          -1.16571022028286   -0.27131168969224    1.85916996600447
O           1.60077067809120   -2.20187828506181   -0.86535457760946
H           2.36111176324897   -2.00793423561685   -0.29655799022805
H           1.09477117913187   -1.12273710705455   -1.94204477393881
H           0.87090616512250   -2.15892143015403   -0.22111821087463
O          -1.66361387745709   -0.80984287659156   -0.96980802623080
H          -2.13889750615610    0.68763225890696   -0.49515150415832
H          -1.05200576917844   -0.81426341208068   -1.71779338108964
H          -1.12970318131858   -1.09334860155192   -0.20323355552371
N           0.41346298213440    1.72637442754652   -0.95027006673174
H           0.90930291280267    2.57661251710861   -1.19208730859598
H           0.80740246665594    1.32248869053374   -0.00430456410605
H          -0.59610434132762    1.90613539364382   -0.78430172074460
H           0.53794863909944    0.99002283242944   -1.67333814140886
