    26
        -50.45479386  Gyration_radius:  2.4718174242 Dipole_moment: 5.876
 S           0.44048568816428    2.01331153361836   -0.41825759563614
O           0.03454214097106    0.82405832459593   -1.14587173490306
O           1.95342440154556    2.18506227531274   -0.55705510641363
O          -0.24042137044653    3.20685822978415   -0.78095039371585
O           0.22938431959061    1.74474754117822    1.09052418494583
O          -2.66884501481259   -0.84866840816806    0.41142304235480
H          -3.53303847387193   -1.00693453726308    0.79373637992674
O           1.18222399406830   -2.32645267413659    0.08755903131077
H           1.24027009929965   -3.27491689526335    0.21010739320325
O          -0.26943711404711   -0.66889917755331    1.69142168078002
H           0.05211850818547    0.76477192879170    1.33082438299460
H          -1.16800977902432   -0.78316733083860    1.32440491385266
H           0.30351426317673   -1.27864270926700    1.18543159704545
O          -0.78559444525503   -1.72157403574781   -1.52043235958456
H           0.48857446299808   -2.17606615067367   -0.61324722902301
H          -1.57075445905970   -1.63835740155124   -0.95951801436260
H          -0.47673865160484   -0.80887860987588   -1.64316369557461
O          -2.54241424869918    1.49788030451275   -0.85543098113115
H          -2.71201794613105    0.03544652312893   -0.01936370331823
H          -2.48030726818843    2.42293905166451   -0.60315628879811
H          -1.65517021755288    1.28374475021129   -1.19132980193430
N           2.86861993319435    0.03259742472104    0.46659294103455
H           2.38289406307227    1.30206026801150   -0.18491375691147
H           3.85151064288451   -0.12552222209455    0.28686253788229
H           2.73047341347407    0.12521771607401    1.46524588350335
H           2.34471303806609   -0.78061571917229    0.14855669247568
