    26
        -50.45450929  Gyration_radius:  2.45164996555 Dipole_moment: 5.288
 S           0.41326320873629    1.85939338559332    0.85624523038502
O           1.02917028973566    1.76763592070841   -0.55003903601167
O           1.38896142102298    2.39991582095572    1.73177321097026
O          -0.78169324554053    2.82282664648042    0.68841837175665
O          -0.11964589384919    0.56225613600189    1.23166062941969
O          -2.44313907842860   -0.73617215675556   -1.07829839081283
H          -3.13062335718461   -1.28829596482138   -1.45248294442257
O           1.50111897948148   -1.91822225303798   -0.94776059585256
H           2.17750993070798   -2.36729290523654   -1.45623127583828
O          -2.77751204145021    1.19883296818208    0.80370077138067
H          -1.63008600138183    2.28305380468437    0.68442772385910
H          -2.76518549436528    0.61336433454317    0.01994895569966
H          -2.36609108677864    0.68686508945478    1.50801164060219
O          -0.82750356037033   -1.95507626652705    0.56161837560767
H          -1.91866644708264   -1.30540146836741   -0.44506346680524
H          -0.55356517738419   -1.12016176677801    0.98009039249410
H          -0.05217670025923   -2.23318450147767    0.05125684260692
O          -0.01548665810214    0.03918130980028   -2.06502413490403
H          -0.94140980105431   -0.14689760498857   -1.82397759357230
H           0.55660627320689    1.11333046015777   -1.18766704078320
H           0.50872007418893   -0.73487329368342   -1.77073090297693
N           2.64322738710069   -0.26856613840208    0.80906789467740
H           1.97652261745507   -1.33649019460745   -0.28628278030220
H           2.93326371016336    0.57345180641234    0.32470311356967
H           1.82153681262135   -0.00188399426661    1.34228793178542
H           3.37288385870203   -0.50758915385249    1.47034705750409
