    26
        -50.45450935  Gyration_radius:  2.45175762922 Dipole_moment: 5.290
 S          -0.13630872008370    1.72850796724245    1.16318784311777
O          -1.60741380793037    2.04866816708713    1.50649946645363
O           0.72030572762593    2.79754202348736    1.52966975909570
O           0.20541151991001    0.51591386870882    2.04551632484016
O          -0.08849042046622    1.33416619911241   -0.23298477720144
O          -2.16509046261032   -1.40280333056694   -1.00448814782287
H          -2.66341633807996   -2.04115736014422   -1.51607760466082
O           1.89265535257053   -1.75896057639372   -0.39632349153621
H           2.58180310746051   -2.40002041099680   -0.21774348726329
O          -2.83003405990099    1.20233202563072   -0.59662357061217
H          -2.14643971174766    1.54639692332855   -1.18101062731834
H          -2.74664743684926    0.22888118016319   -0.64894127743491
H          -2.18987918446523    1.72389426328221    0.75389383733806
O          -0.40198138047976   -1.72715289092850    1.05823480567631
H           0.40957768723108   -1.86759771964122    0.52716008150235
H          -0.10653898513104   -0.39065298870912    1.67309996925354
H          -1.13862723343127   -1.65944077754038    0.42355768222335
O           0.04911756472176   -0.59628034124241   -2.11404876678733
H           0.07475331952966    0.21227901912686   -1.57285616099529
H          -1.36529301107368   -1.14791149055640   -1.54810674497446
H           0.76611868497059   -1.14402018610039   -1.76067506861838
N           2.66279460892553    0.64958570435196    0.45138001805167
H           1.91170393003812    1.20950350349152    0.06027826195416
H           3.53659038301870    1.11282043708532    0.23070227941127
H           2.53700446585630    0.69664664435893    1.45620932893836
H           2.23832441022577   -0.87113986387290   -0.08950992351774
