    26
        -50.45450931  Gyration_radius:  2.45176293009 Dipole_moment: 5.286
 S          -0.12060804784572    2.08167326913519    0.10785813309302
O           0.00077725195960    1.47929972666356    1.51788826218282
O           0.77757800070391    3.17508302748486    0.01531439889318
O           0.06138960974770    1.03255048664427   -0.87887519747266
O          -1.58790002931264    2.55471030118482    0.01916977548528
O          -2.14405012792105   -1.68462796028312   -0.48295989056557
H          -2.63281908073477   -2.48500493326937   -0.67776678215473
O           1.76021310866314   -1.74614832485910    0.82690730099605
H           2.36116786065494   -2.21885246703455    1.40414067108669
O          -2.61593480094196    0.77774772607601   -1.53616399484177
H          -2.61497357228922   -0.08881335148388   -1.08178625435641
H          -2.10105585346056    1.90218032646510   -0.54841572751922
H          -1.83776256205068    0.76672918972828   -2.10321935757327
O          -0.68256617802560   -0.94420370750471    1.70470342350303
H           0.17183490825541   -1.34753929219623    1.44435033793680
H          -0.34454197254824    0.51458479248383    1.60603463461550
H          -1.32710120497076   -1.19675283156742    1.01862130121898
O           0.25294612603848   -1.58747213701627   -1.49769316104763
H           0.86900496630289   -1.89137364771064   -0.81424348628793
H           0.28503014572324   -0.61665526335295   -1.43626630333319
H          -1.26403674235717   -1.75344526281192   -0.95305106002986
N           2.63584338564099    0.74649632530664    0.46211797913374
H           2.39258131213866    1.29915254814695    1.27644623686649
H           1.99188499688044    1.04205218017599   -0.26492611330245
H           3.56826853601171    1.01986906057294    0.17462614985174
H           2.14482994382265   -0.83123976090436    0.69718873371687
