    26
        -50.45479406  Gyration_radius:  2.47172575924 Dipole_moment: 5.881
 S          -0.37844156668809    1.95842134454178    0.66800777247543
O          -0.24395975362153    1.86138262055968   -0.87016965585845
O          -1.48699088281152    2.78762366063103    0.98915357526432
O          -0.44176899677932    0.60802464310157    1.19804038722320
O           0.93320170840047    2.60396879742223    1.11599451878728
O          -2.09021947995459   -1.62241122384268   -1.00381851971316
H          -2.76992967947290   -2.00292385834924   -1.56173477231790
O           1.93259454845860   -1.75590006035651   -0.04603121955662
H           2.34313979930384   -2.60093270762240   -0.23405359019371
O          -3.00893903602723    0.41589070882833    0.45521762500475
H          -2.16881712447775    0.46326403625249    0.94284727037797
H          -3.24151706867820    1.33505662681010    0.29945548324161
H          -2.51258533769194   -0.87774340340754   -0.51788485104214
O          -0.34750695045273   -2.09091601426193    1.18374916382658
H          -0.40785348958721   -1.15664359003695    1.44251946519696
H          -1.01249492017175   -2.19281374962023    0.48697361738450
H           1.13025644162172   -1.95221679791779    0.51309111452094
O           0.25621756301193   -0.46095797389750   -1.76058618265965
H          -0.01780208949681    0.92657581139751   -1.22279197008559
H           0.92185952050275   -0.91184606051875   -1.20403720473259
H          -0.58805646435682   -0.92332679558816   -1.59146309888470
N           2.70290378529098    1.06055007709290    0.11396262937323
H           2.46186788913333    0.08106584467960    0.25353220570829
H           2.69623234921638    1.24773236651214   -0.88096583737594
H           1.70149491674625    1.98156878605046    0.76208530018906
H           3.63711429856718    1.21750693150732    0.46890677385232
