    26
        -50.45450935  Gyration_radius:  2.45188168222 Dipole_moment: 5.290
 S          -1.13023339449341    1.72182485913904    0.34608781407855
O          -0.55921927501449    0.97647446480914   -0.76106036783491
O          -0.91212824801767    3.12275138336586    0.32112425010524
O          -2.63783462398825    1.39241941194148    0.40102465470788
O          -0.57175873665599    1.17254243371510    1.66957097133039
O          -1.05670805134112   -2.50355458185723   -0.53163783060820
H          -1.09887304657606   -3.42692925205839   -0.78279215855715
O           2.47572500118685   -0.66275349456113    0.51477952396361
H           3.29177638342896   -0.80160698166318    0.99697707455866
O          -2.80571284581279   -0.55763357037115   -1.27314605069612
H          -2.81630837122036    0.60720660871879   -0.20124015679227
H          -2.19227973203281   -0.13620333794345   -1.88418104930826
H          -2.32368420095088   -1.33176601182650   -0.91848823635962
O           0.07292605642050   -1.26813475324663    1.62841416186435
H           0.97981997828475   -1.16478719588270    1.27156400899447
H          -0.37613153481867    0.16266907212877    1.67118075191234
H          -0.43106869996031   -1.76774030666957    0.96029239316706
O           0.84300715057519   -1.13941909181855   -1.67857083615396
H           0.39368507675335   -0.29236016188997   -1.51156328331527
H          -0.31807652119893   -2.08632709216860   -1.06117775383987
H           1.59992075549038   -1.13245632997900   -1.07356793040684
N           1.94493065078122    1.94713136069360    0.37701194517361
H           1.16035073881093    1.92085958670697   -0.26675680747356
H           2.33568041653073    0.32701229231464    0.46411120436007
H           2.57731363203123    2.67226162451802    0.05913903596620
H           1.55488142174552    2.24851904392879    1.26290469120806
