    26
        -50.45450938  Gyration_radius:  2.45176774582 Dipole_moment: 5.290
 S           0.67597959093272    1.77090036744771    0.87686081264486
O           1.20287857156699    1.65017129295202   -0.56305194423141
O           1.75333147574182    2.16549062943551    1.71016078965631
O          -0.40216913905867    2.87359805902431    0.79839566866869
O           0.01182279217191    0.53514163812524    1.24957636114193
O          -2.56505408487947   -0.41077138214174   -0.96106693637660
H          -3.33206893336218   -0.86624386758908   -1.30990950583711
O           1.20964379314098   -2.05332437551278   -1.07222644808468
H           1.79987765159479   -2.56578090484726   -1.62607392242761
O          -2.57000907700979    1.49430433581644    0.98027199570582
H          -2.66678568790815    0.93453400041888    0.18374009810400
H          -2.18958255093031    0.91670367421346    1.65039877342696
H          -1.30800085921527    2.43814339362186    0.82619045860134
O          -1.02571388537445   -1.85981084129736    0.56082054084532
H          -2.08082644576793   -1.05636097887920   -0.37044595744371
H          -0.63296462045517   -1.07589175227159    0.98324115866331
H          -0.31637349248779   -2.21207862213729    0.00248843219629
O          -0.11614735142435    0.10253570939367   -2.05952526552573
H           0.32612853783465   -0.73633577741225   -1.81232795267712
H          -1.04418470014412    0.01971632964962   -1.77329340773995
H           0.62369691731130    1.07546674540477   -1.18932369492527
N           2.63100633794598   -0.60200056246017    0.65559652781287
H           1.78497689812756   -1.55139978016562   -0.42492878283200
H           2.99269150395617    0.21406648783926    0.17503398428048
H           1.87649582266749   -0.25653335804144    1.24038941773915
H           3.36135094499726   -0.94424046069005    1.26900878888195
