    26
        -50.45450906  Gyration_radius:  2.45154347066 Dipole_moment: 5.284
 S           1.41857490787968    1.28772632304770    0.82954038421770
O           0.96647194728660    1.80415477078988   -0.54688108572601
O           0.76134711933487    2.25687845522376    1.83616674269006
O           0.85260297256672   -0.02967665074991    1.05679893848908
O           2.83308498168085    1.36760805532402    0.88903838343833
O          -0.11713720078181   -1.34728724736345   -2.23647719567918
H          -0.08824739358769   -1.54014821158204   -3.17437145058008
O          -2.65741921974375   -0.13063027763324    0.77041756374437
H          -3.55930645052114   -0.44608742131556    0.83809696666862
O          -0.87355802007138   -1.98347914112490    0.35726659282786
H          -0.71953725700206   -2.03011211799571   -0.59824456491332
H          -2.07183479513159   -0.93231418967565    0.65021503703783
H          -0.15169462985143   -1.42210257608786    0.69046253906006
O          -1.11918258710960    0.79375287598643    2.81392168829278
H          -1.78058862016465    0.60943345581245    2.11690757558848
H          -0.55203856504547    0.01576640612604    2.83610105108867
H          -0.02261561771039    1.79315006304603    2.26237139436997
O          -1.27203966957165    0.93762546806257   -1.32932282706302
H          -1.84870827448643    0.68831424425801   -0.58414381658456
H           0.02404562505654    1.50634867915749   -0.83170344852029
H          -0.96052544207900    0.09975595936543   -1.73138047863334
N           2.31531917225916   -0.66003640022772   -1.38572670677275
H           0.81868186851958   -1.12542283221618   -1.95910684247081
H           2.13843447843692   -0.63257878062553   -0.38643497378030
H           3.17161639001784   -1.18208380817064   -1.53079713161079
H           2.49425428790398    0.30144490910902   -1.65271433796668
