    26
        -50.45450932  Gyration_radius:  2.45175376764 Dipole_moment: 5.288
 S          -0.77523851974755    1.55245136203618   -1.16191879240919
O          -0.53758874705316    2.03065623782566    0.28049628020025
O          -2.31078711645570    1.43984229279056   -1.27952759910377
O          -0.26385137481483    2.53777259105405   -2.04423581179597
O          -0.22513951125961    0.21854121456742   -1.32147459078755
O          -1.47871635943769   -2.11921072522755    0.99715512091364
H          -1.67924515887558   -2.95845364568327    1.41303645410265
O           2.17809936051036   -0.27120704634147    1.41876370883459
H           2.86873646515701   -0.08840071647600    2.05703844917911
O          -2.65001529999967   -1.11299400770951   -1.24156063772150
H          -2.39933454918715   -1.46016535194031   -0.36185149839104
H          -2.56462967849748    0.46759231335415   -1.24057422167441
H          -1.88021430433098   -1.26159806580604   -1.80069781875170
O          -0.43256540419359    0.19383892949878    2.00975181836593
H           0.51698945342142   -0.02914277099921    1.91426497122334
H          -0.56594147414428    1.28810391992828    0.99151270612070
H          -0.93062621058328   -0.59747389064672    1.73454745823943
O           0.81164158224820   -2.02677034431450   -0.24021255286124
H          -0.60037467355653   -2.22287104900390    0.53041879227679
H           1.45836904478520   -1.65073861859405    0.37568035744922
H           0.53330793358369   -1.27176730435419   -0.78770874956405
N           2.24154858829631    1.55484451463539   -0.52399849756078
H           2.26097589059746    0.41912291169332    0.69872373136061
H           1.80062158474206    2.40375635973335   -0.18838596453507
H           3.05303932346569    1.82592760289488   -1.06693967226310
H           1.57093918517130    1.13834328708620   -1.16230346068930
