    26
        -50.45479410  Gyration_radius:  2.47168913678 Dipole_moment: 5.881
 S          -0.77331976024088   -1.10077826867495   -1.61756412944579
O          -1.93543001468278   -1.13611120938210   -2.43470259408753
O          -0.22429142829273    0.22222669948072   -1.37936746203016
O          -1.09665342422929   -1.73721900632284   -0.24501762776391
O           0.32518407705456   -1.99528465850478   -2.19287424626795
O          -1.64566407668207    1.76964426491155    1.47191104784604
H          -2.30003504143593    2.13081631271659    2.07139384894035
O           2.28739666606073    0.52750093044709    1.14546898053558
H           2.87244218868819    0.93760098568479    1.78384708274370
O           0.73769869850991    2.31271775745027    0.03430355912864
H           1.80657510992099    1.27166709096872    0.68730576225394
H           0.45818236383675    1.70966713628776   -0.67394760459706
H          -0.03767732124201    2.38621990534346    0.61006308486299
O          -0.16144809186435   -0.49776943762610    1.76156252899775
H           0.75190946549542   -0.19376656200435    1.58980256039377
H          -0.71264997510120    0.30923825548507    1.76853243822498
H          -0.69600649818393   -1.24692964738740    0.56014408558060
O          -2.68388725290144    1.17876017529107   -0.91560951063929
H          -2.11711523589929    1.57114785206302    0.63082793048748
H          -1.79870212991240    0.98236271857591   -1.26731274300158
H          -3.24025390497350    0.48595766740785   -1.28123590443669
N           2.10257605087498   -1.97239244260048   -0.36033226488627
H           1.10611921052887   -1.98844080064276   -1.49072488858990
H           2.25122928594161   -1.03152134816269   -0.00037331193753
H           1.72895550306946   -2.54097163900547    0.38938013654983
H           2.99486552566009   -2.35434270179887   -0.64548072886289
