    26
        -50.45450939  Gyration_radius:  2.45183581802 Dipole_moment: 5.290
 S           0.42198287920487    1.85649981014352    0.85891903273839
O          -0.14359740938801    1.30278895268625   -0.35800038996402
O          -0.75094077720413    2.33802411378589    1.74030291007668
O           1.07377631397001    0.72780434993855    1.67539714617656
O           1.38284317082636    2.88355115557053    0.67818884783474
O          -2.42438135482334   -1.32349801420171    0.20705145013466
H          -3.11335183865271   -1.96908923936013    0.04587482877888
O           1.49198682197036   -1.94494374417425   -0.90757577249987
H           2.17353709381849   -2.61681861695224   -0.95058234057519
O          -2.77747404385840    1.35805473570816    0.48894341856850
H          -2.39782942366343    1.57285951869957   -0.36961119527513
H          -2.75193988862797    0.38148231337474    0.54391204750941
H          -1.60817139979217    1.97766987634422    1.35744199444831
O           0.04393623436746   -1.55543319138545    1.35788336321341
H          -0.89162313373799   -1.50060525712634    1.09037206117993
H           0.54561520652221   -1.82299846278551    0.55966854732998
H           0.60874870452448   -0.18637695616798    1.59841934205800
O          -0.87788599332783   -0.83605837691288   -1.83155248887508
H          -1.92796892303935   -1.19986881679962   -0.65224153641565
H          -0.09358316840203   -1.39788959629555   -1.74094005981274
H          -0.60077602322638    0.02401247582017   -1.46999548492477
N           2.61577976752176    0.47152285133118   -0.80639007481357
H           3.32271987965570    0.83207992342044   -1.43651346719447
H           2.93404027658935    0.64335785134487    0.14068172118364
H           1.78484385235744    1.04394711959062   -0.91830016119409
H           1.95971317616124   -1.06007477534770   -0.90135372975010
