    26
        -50.45450886  Gyration_radius:  2.45147875617 Dipole_moment: 5.286
 S          -0.52875172253122    1.66342318251658    1.14502061436750
O          -0.72754485367591    1.95879881238451   -0.35115020551715
O           0.13240096601375    0.37992995325402    1.29660515649707
O           0.13705893082834    2.77056079563655    1.72953958464257
O          -1.96236705951657    1.51686671041195    1.69970192615289
O          -1.55279942543312   -2.27511347727961   -0.29027338832366
H          -1.80408019295296   -3.16653779059845   -0.53463591330367
O           1.71808625599457   -0.38221464219885   -1.93203316282230
H           2.18753453226846   -0.25671420280108   -2.75754761656824
O          -0.97890846556668   -0.08172850325025   -1.81641035849078
H          -0.02669320471373   -0.26058436212592   -1.96491059378337
H          -1.32933598664831   -0.84556203667269   -1.32263956393470
H          -0.90038476064204    1.13017707143278   -0.93550055935336
O           0.97846879655777   -1.95260153931242    0.23381721380210
H           1.40565269125195   -1.63988678728346   -0.57769219166633
H          -0.57507137747283   -2.29041370443775   -0.08069742181961
H           0.81233674811800   -1.14199943861607    0.74622967810524
O          -2.12283831279142   -1.02840808576664    2.05902097444923
H          -1.21857945196081   -1.07560246345369    2.38699475380124
H          -2.14996725338290    0.54034475658364    1.84939474872843
H          -2.10448839965709   -1.47812617021238    1.19030460679074
N           2.19070610179263    1.68033116886092   -0.30840968581579
H           1.75117644158991    1.32884132888635    0.53651625122950
H           1.61860161108345    2.46404129019271   -0.60205964316638
H           3.10038918910982    2.04521459286074   -0.05122758168788
H           1.94939819238429    0.39696354099923   -1.34795762226043
