    26
        -50.45450934  Gyration_radius:  2.45174983695 Dipole_moment: 5.291
 S           0.38260622769524    1.83647579666772    0.91630320323196
O          -0.80429837252492    2.26914722590238    1.80439386564123
O           1.05137971173509    0.69689676973319    1.70332439047953
O          -0.16554721448879    1.30835517687766   -0.31974476559277
O           1.32454180214271    2.88659649684468    0.77160339682693
O          -2.39989052575346   -1.37083840052774    0.15200845087226
H          -3.07394685405857   -2.02629430996422   -0.03099444309707
O           1.53256683562282   -1.89007988029928   -0.95474578497240
H           2.22621409702524   -2.54832948507256   -1.01304199784860
O          -2.80676931215846    1.29425017926027    0.51032617732392
H          -2.76235190575785    0.31718541794990    0.53599183047912
H          -1.65259481638381    1.90679119738376    1.40423944609143
H          -2.42890070338946    1.54240896909962   -0.33987772464890
O          -0.85107272949090   -0.79760241496931   -1.86229758729410
H          -0.05720725330162   -1.34757781114427   -1.78255573191729
H          -0.59213704230177    0.05628576318475   -1.47372965609296
H          -1.90094328438580   -1.21363196649954   -0.70036635896173
O           0.06452966243036   -1.59384931220993    1.31203857342408
H           0.60361036709969   -0.22292923320049    1.59679805615919
H          -0.87015084881781   -1.54663780018757    1.03971558775415
H           0.57571807283153   -1.82852326128220    0.50952884882564
N           2.61179210550379    0.54202204072723   -0.77470699561170
H           2.92066737977350    0.69131218708378    0.17926325371349
H           3.31634447902514    0.93343401448884   -1.38887254668837
H           1.98432474263414   -0.99760618365020   -0.91905152009552
H           1.77151536927534    1.10273880365714   -0.87554998805962
