    26
        -50.45450937  Gyration_radius:  2.45180965934 Dipole_moment: 5.289
 S          -0.21858293864824    1.92728592418322    0.77373843800319
O          -0.39011060777334    0.54464354402778    1.18152283009167
O           0.47485904795519    2.75691573893984    1.69116383523280
O           0.52645843749605    1.97152312265542   -0.57102806477127
O          -1.61834464674684    2.49571002953312    0.45428600818446
O          -2.01780039317647   -1.44963595862002   -1.22411543155045
H          -2.48307032949979   -2.18933610901440   -1.61634209329534
O           2.06928355765606   -1.43189352699338   -0.70759800690787
H           2.89052817639991   -1.68391231926567   -1.13166332664272
O          -3.06793817708776    0.36743368680164    0.50521524171025
H          -2.27235447691760    1.73285990827238    0.41453901942992
H          -2.81309725062119   -0.21568358034966   -0.23803895174176
H          -2.59858203703973    0.02046110140657    1.27112419624212
O          -0.28262291353404   -2.09096519836430    0.60975573973274
H          -1.41411744638930   -1.82045377062780   -0.51833822529629
H          -0.29946235125954   -1.19853438512214    0.99774508376595
H           0.58432912823984   -2.14948787504261    0.18088012470776
O           0.16885823044383   -0.03743071797194   -2.05783965626463
H           0.86223954982999   -0.61564851631596   -1.67647889577150
H          -0.68366731521987   -0.47562502501196   -1.88158191736638
H           0.32395206943272    1.18624590172719   -1.20374544430995
N           2.52267640106285    0.53895789994615    1.03103293291158
H           2.29438317866211   -0.71472201068079   -0.04669849072661
H           2.60763188732935    1.41117614181994    0.52138197696273
H           1.61171317768633    0.57652351807425    1.47755010898309
H           3.22283804201300    0.54359248587325    1.76353296888231
