    26
        -50.46438035  Gyration_radius:  2.41491564156 Dipole_moment: 4.124
 S           0.38538143772561   -0.73108733812245    1.41092275875632
O          -0.13821113176526   -2.17582548672844    1.60092876323181
O          -0.76716524001266    0.16367058417681    1.26693194196001
O           1.16487455409388   -0.35818743656834    2.58243131010024
O           1.20714912075568   -0.70778925384439    0.20095602645150
O          -1.42420459693589   -0.91168575422887   -2.41869812792087
H          -1.85454391473817   -1.30333600318450   -3.17993950184199
O           1.54483992540189    1.83558581350082   -0.36377795698278
H           1.62677111193015    0.86181727309944   -0.24836052121220
O          -2.19931063646031   -1.75908822590822    0.08155569130450
H          -0.93608207891585   -2.24275293401343    1.00903164287210
H          -2.12302283786665   -0.90982516556931    0.54231120386980
H          -1.98853092469342   -1.55724529430768   -0.85103954758427
O          -0.99162930179118    1.52594136476056   -1.02817359887014
H          -1.19183363307753    0.84313668829407   -1.68336283951341
H          -1.02327703760098    1.05958445726960   -0.16960226017189
H           0.66281096847253    1.92814856995068   -0.80025599914385
O           1.02778793567447   -1.86120077773679   -2.14834911081855
H          -0.50898026133805   -1.28458891727840   -2.38777259735498
H           1.76392076863962   -1.48060234523446   -2.63083705915886
H           1.12768884271017   -1.54641239251951   -1.22173046175960
N           0.93249455098573    2.16093301808790    2.11399551744269
H           1.41748983916468    2.84859021895786    2.68183545168082
H           1.25446117888464    2.16091328676722    1.05777142455463
H           1.10821819736003    1.14798538159141    2.44706783211158
H          -0.07709685657985    2.29332066877309    2.13616000800753
