    26
        -50.46438035  Gyration_radius:  2.41491832445 Dipole_moment: 4.126
 S          -1.62932497163471   -0.06014666231696   -0.12173814123633
O          -0.77068946099096   -1.09426734581392    0.45527566497986
O          -0.82050910881510    0.97789931704070   -0.76831698696755
O          -2.56844759197573   -0.62996610752267   -1.07695517861779
O          -2.42830146790677    0.59183832014540    1.03322593479839
O           1.82950283057900    1.00517873217198    2.08639015856956
H           2.34870212649694    1.31114360809212    2.83129360222223
O           0.94333826199129   -1.71294862381812   -1.43722864919393
H           0.32938058366765   -1.70219832014876   -0.66838454359846
O           1.83957379515120    0.66856731365941   -0.73289849526248
H           0.88951606913813    0.89428881244464   -0.77885554501734
H           2.07372036403151    0.79019910824655    0.19768138330950
H           1.52956887368757   -0.93782104378705   -1.25685481680130
O           0.62881706843426   -1.27712685569318    2.66647292864025
H           1.43020276796910    0.14149821080944    2.35521510522323
H          -0.00070551363364   -1.22353666124023    1.91252540366198
H           1.08143156434481   -2.11646604149802    2.56543304236565
O          -0.53907537527300    2.29557484763218    1.54195705484047
H           0.30098007147908    1.89935148089975    1.84563756797532
H          -0.50085697083017    2.24631166255025    0.57476140531566
H          -1.81148063507022    1.26707248654391    1.42696936883995
N          -0.83447160303755   -0.66983960044806   -2.97729035123411
H          -0.58516042073915    0.31380025199464   -3.06429997372472
H          -1.66865027353621   -0.70701941109765   -2.29129363592533
H          -1.04981503385536   -1.08739585989036   -3.87718577683872
H          -0.01724596966800   -1.18399160895033   -2.44153651631535
