    26
        -50.46438030  Gyration_radius:  2.41494921497 Dipole_moment: 4.126
 S          -0.53548966435908    0.87957291143894    1.26988396066701
O          -0.89710925120631    1.18389309520202   -0.11802550782432
O           0.48874818876194   -0.16371257614860    1.31615152598943
O          -0.08563412369932    2.08768846887765    1.94602365315735
O          -1.79318278730558    0.34217505957005    1.99582493362591
O          -0.86174659930309   -2.56242482762501   -1.18301150470642
H          -1.17571257639097   -3.41979110878169   -1.47355381042440
O           2.31910598313343    0.57940757495635   -0.41591676355188
H           1.81386149424625    0.20762651276822    0.34213511281526
O          -2.69961427756248   -0.79151942503829   -0.15436284994038
H          -2.31609815083569    0.02383536635688   -0.51144219477218
H          -2.13804040974921   -1.50803287101500   -0.50946854044595
H          -2.26819829474499   -0.21085764608609    1.31759221593585
O           0.43964993562794   -2.77819480049479    1.10761039320416
H          -0.36458165256751   -2.71320899807154   -0.34175781951867
H           1.36916729977699   -3.01273142616849    1.13085415997999
H           0.40503518362815   -1.81481984101692    1.30335609125414
O           0.38164404679299   -0.16120430297822   -2.04927890980747
H           0.05365486443929   -1.06634053449863   -1.95576630145633
H          -0.16300700495412    0.36282690322231   -1.42932035899567
H           1.81803134939401    0.23959812683052   -1.19731017779703
N           1.25899907024125    2.90123651432508   -0.09091551808135
H           0.54011116309280    2.98235575074018   -0.80780539109694
H           1.83411445804448    1.97903378509010   -0.28567990344802
H           1.83891093627501    3.73289080778601   -0.03994234780505
H           0.73738080926464    2.70069748086383    0.83412587304065
