    26
        -50.45526236  Gyration_radius:  2.41578990107 Dipole_moment: 6.813
 S          -0.79192034732574    1.50317022848380    0.87966797292269
O          -0.16365016956495    1.64806792786131   -0.45858787645374
O          -2.15903894786129    2.24983557449950    0.82343119480428
O          -1.03588029690731    0.11431604863480    1.17932645368468
O           0.04235846728729    2.15731770389779    1.88113392626346
O          -1.60188545951444   -2.02273771901277   -1.11269754261516
H          -2.17789759612691   -2.76203050764748   -1.31068210745321
O           2.32914250639043   -1.12860640814052    0.27288387709390
H           3.08120029907067   -1.60411840615394   -0.08347248293062
O          -2.61762954497788    0.63440524907576   -1.22483291139717
H          -1.77461205224918    1.03989226244439   -1.46090166745774
H          -2.41155743824770   -0.30219559572118   -1.06025448795169
H          -2.64659175213162    1.73465315462436    0.14500620377607
O          -0.20807382757199   -2.38299343193114    1.14336657087294
H          -0.57019427175725   -1.50907927579520    1.38420914901045
H          -1.16581937268479   -2.22657327213355   -0.24917979579695
H           0.73429273917562   -2.22209194382063    1.01852955586538
O           0.67319805531630   -0.58684050150121   -1.63745778521849
H          -0.09161822663532   -1.18617769607797   -1.64792214326671
H           0.32026035642631    0.25351914937121   -1.27710533756420
H           1.68704064326115   -1.00346804072783   -0.49320937997653
N           2.16975478321374    1.52253141879893    0.66341934455545
H           1.46628561863971    1.78929076297343    1.43869261354906
H           1.52960271180108    1.70105928418402   -0.14563969103169
H           3.00597142239509    2.09683213247322    0.65741264307913
H           2.37726168057967    0.49202189133489    0.67486369363824
