    26
        -50.46438029  Gyration_radius:  2.41489565884 Dipole_moment: 4.127
 S           0.48626052483193    0.78491017895841    1.34957042717029
O           0.62748862203729    1.35239246547931    0.00508418458059
O           0.04499914914573   -0.60783884652248    1.27475045604190
O           1.74292380253277    0.89925693217300    2.07529659606521
O          -0.60045272125002    1.58685802401114    2.10689977720284
O          -2.63000970514583   -0.34353426912020   -1.29318862387535
H          -3.52559038281015   -0.44320838940389   -1.61886726428027
O           1.61194200711705   -1.74227388190227   -0.50259846399038
H           1.02365284571636   -1.52800922822049    0.25653470872872
O          -1.96088706349956    2.02241618322650   -0.05851025291535
H          -1.29082935919649    1.79947550486604    1.42156893737265
H          -1.05055000262339    2.09263060051661   -0.38371834442333
H          -2.31840227909835    1.22053369782611   -0.48754720088963
O          -2.27789216708317   -1.76924087164210    0.90469375656718
H          -1.45050611199438   -1.30397658400087    1.16280413083161
H          -2.55465394747886   -0.91738078387436   -0.49151442111282
H          -2.04815849831930   -2.69923809886174    0.86198436856709
O           0.09892780526995   -0.25342146973562   -2.07252050356359
H           1.10080716560058   -1.39879567334594   -1.27580525883934
H          -0.85665306832087   -0.39328199446702   -2.01875875659464
H           0.28689485118108    0.42310602975481   -1.39236075550129
N           3.15358713176440    0.24917557014203    0.02411760512994
H           2.70405109642158    0.54435234375389    0.96144482646454
H           2.90926071638875    0.97570466333856   -0.64652598582117
H           4.15821040463064    0.12206530657890    0.09586191211293
H           2.61557917418202   -0.67267742952448   -0.25869585502731
