    26
        -50.46438030  Gyration_radius:  2.41483873233 Dipole_moment: 4.126
 S          -0.06018532739859    1.31653109673589    0.96812326051037
O           1.03202765280684    0.96301919880907    0.06141927905967
O          -0.77308102948049    2.56301681527696    0.38879634578863
O          -1.03361801310777    0.22328344255160    1.05098340161598
O           0.44301360329740    1.64000426219849    2.29521603521089
O          -0.87545384478608   -0.50364707098139   -2.77234937966586
H          -1.14538869629889   -0.56652922347306   -3.68954374217080
O           1.78290059273254   -1.44991909214271    0.77906822355269
H           1.72368842876666   -0.52367437909467    0.45221781027477
O          -2.33461470553559    1.12673523387306   -1.10408890120240
H          -2.27989938254848    0.58461958838422   -0.30257128249804
H          -1.40215901143171    2.20709227701432   -0.29606244700330
H          -1.87851087799272    0.60309499535155   -1.79157912700057
O          -0.52965165668534   -1.98661430158971   -0.37604143041986
H           1.05184434875958   -1.89941328474844    0.28858199661542
H          -0.82446530980808   -1.22248193298061    0.15765455488398
H          -0.63702692140992   -1.69848951757174   -1.29313546797739
O           1.31104946894449    0.96452714601723   -2.54693539887532
H          -0.04408200271357    0.03131725225939   -2.75785233783463
H           1.21336378638815    1.09388520399926   -1.57666981082490
H           2.18176930263628    0.58201954724060   -2.66963252347040
N           0.61865786122822   -0.83153437105591    2.98855400619764
H           1.18928788419078   -1.20490080504695    2.12001577045649
H           0.59169575277521    0.23985201527813    2.85031804867684
H          -0.34366708426480   -1.15165684146797    2.89515090375713
H           1.02250519094429   -1.10013723483122    3.88036220234325
