    26
        -50.46438035  Gyration_radius:  2.41491281285 Dipole_moment: 4.125
 S          -0.04100891604678    0.96946022555842    1.31574353571064
O          -0.37399717323827    1.44180986647607   -0.03176107364797
O          -1.34136987858329    0.93184898059542    2.15543243265883
O           0.49859531185031   -0.38914929791325    1.26430494702677
O           0.89824863693878    1.88403947249017    1.94852926767600
O          -1.88651829879340   -1.98481282507442   -1.10081033518784
H          -2.53204658912174   -2.64295524231177   -1.36196174188949
O           2.31825861045536   -0.34511697210610   -0.63017293576314
H           1.77538141455243   -0.52139591008356    0.17132329352318
O          -2.79764523903074    0.31840855578065    0.09783543400404
H          -2.16018416694426    0.93540761232879   -0.29243471271230
H          -2.59063446419447   -0.54543397501675   -0.30937861713823
H          -2.04990491188173    0.63136919492029    1.52368071142190
O          -0.57955026947468   -2.77165296007560    1.05782421548942
H          -0.22032501251831   -1.87785148798723    1.25701704802539
H          -1.41671998160986   -2.34719197161920   -0.30985389972406
H           0.18403312485653   -3.34817061685473    0.99390987080700
O           0.11230013896032   -0.21946769094095   -2.07550597909176
H           1.65982743644473   -0.43608212323095   -1.36175695511112
H          -0.53189076117127   -0.93056629233406   -1.95321056136336
H          -0.13102023516592    0.45036401334394   -1.40634159509570
N           2.27210122494708    2.19208160607387   -0.20488180004644
H           1.79568252828226    2.17369179089186    0.76491187736509
H           3.13067253118324    2.73372709510421   -0.20813628365306
H           2.42635345121358    1.12737090737782   -0.45356892605409
H           1.58136146807125    2.57026806461640   -0.85073723722485
