    26
        -50.45479433  Gyration_radius:  2.47148060348 Dipole_moment: 5.889
 S          -0.08670958128507    2.06070847882811    0.41818336038065
O          -0.10608033942688    1.19934573026153   -0.75063183889223
O          -0.33222050269114    1.17847351397784    1.66512940013375
O           1.33210143866917    2.59576595642697    0.61411153852937
O          -1.03125183033818    3.12239876956776    0.40444377267618
O          -2.36499027357618   -1.50644516871172   -0.37521274902460
H          -3.18023663997090   -1.98879426762298   -0.23106924770012
O           1.75329637203107   -1.84921774270655   -0.57355032539650
H           2.05478523491040   -2.73029680308029   -0.79889651867822
O          -2.78266161289292    1.11513383783526   -0.65749185482068
H          -1.85108843124036    1.25252981524436   -0.90065878297174
H          -2.61251430312663   -0.55680971714380   -0.45260055200628
H          -2.98509068204409    1.85448988840604   -0.07816997575377
O          -0.19254157611178   -1.32275711730280    1.26046745450741
H          -0.24918488999699    0.17083669883055    1.50167706266178
H          -1.00149150733229   -1.48010876625552    0.73511459279895
H           0.55476918903257   -1.54093222361607    0.66887185068052
O          -0.19149109988562   -1.10793814982609   -2.15188977526403
H          -0.12921303317191   -0.17684402870180   -1.88231874116508
H           1.09386891244660   -1.59022604140223   -1.27585257966746
H          -1.00621300525742   -1.42679752107100   -1.73626819735068
N           2.71319783695158    0.47114785683794    0.92431916706843
H           2.45254790488351   -0.24193478858907    0.24568659690165
H           3.71273855037338    0.61786097092746    0.87171724689119
H           1.95336051368319    1.75394046195895    0.70702554906456
H           2.48231338538468    0.12647032693695    1.84786355639476
