    26
        -50.46438034  Gyration_radius:  2.41487798374 Dipole_moment: 4.126
 S          -1.26717907087185    0.46820067990118    0.92126593065223
O          -0.84382631063596   -0.93046589339209    0.80216024945480
O          -2.62294591872147    0.63217712233664    0.19146725102530
O          -1.44476386492275    0.81937656592313    2.32273599203369
O          -0.29968162283193    1.35395134342766    0.27381020029999
O           2.05169903981950    0.58394677472805    1.15705100634460
H           1.27237953603979    1.07933219802879    0.81727323181308
O           0.31338458589653   -0.49787199188566   -2.89199088230231
H           0.33863252228390   -0.59125276022404   -3.84526028300927
O          -2.01942141134643   -1.15492745226061   -1.58948558004411
H          -2.55954860799486    0.04400074588254   -0.60950619939235
H          -1.25849953426292   -0.92741496689495   -2.15883206271196
H          -1.62565837948484   -1.53640276747457   -0.79022470408101
O           1.46575200678309   -1.41550363506151   -0.46454691928075
H           1.27544850151672   -1.19023838936179   -1.38576183304150
H           2.11969582861564   -0.17249432526239    0.52442623225975
H           0.60074125037778   -1.35535227790890   -0.01312688339244
O           0.15426928515367    2.05188475140176   -2.21369710128438
H           0.28099696040265    0.47220596629775   -2.70337581804333
H          -0.12202419229840    1.86550327057334   -1.28816139341969
H           0.93987296615381    2.59724829236301   -2.14355017209063
N           0.66522896079926   -0.45567228972107    3.05895765379199
H          -0.24395926136757    0.10880099780782    2.90882243687372
H           1.37881455752897   -0.02147480448777    2.33684464149759
H           0.99321711046413   -0.41958052268156    4.01898844562882
H           0.45737503292408   -1.40797659206148    2.76371656036774
