    26
        -50.45450939  Gyration_radius:  2.45181864423 Dipole_moment: 5.292
 S          -0.02940996726529    1.57569209059434    1.37023850684054
O           0.61646429414937    1.89430539552573    2.59178310188685
O           0.94210070401120    1.88506752534372    0.21879525830373
O          -0.50058028754179    0.20826574270106    1.24579669272398
O          -1.23367004564555    2.50817272851452    1.11553578712700
O          -1.97628854340427   -0.50189225503802   -1.87412381383563
H          -2.47986251557224   -0.95619738829930   -2.55048774120790
O           1.89359748279441   -1.54593096172497   -0.92551025373828
H           2.72370141822736   -1.82384094115211   -1.31474497157641
O          -3.00321130087457    0.84775677086980    0.25185360251109
H          -2.71935926372668    0.49339317035385   -0.61489131748645
H          -2.74455343920644    0.17939888543488    0.89510397217949
H          -1.98760423405568    1.96116783477871    0.73666895253769
O          -0.73427831212207   -2.06073733144690   -0.19703800075630
H           0.17364397322884   -2.16715943843027   -0.51841007385522
H          -1.58108483798989   -1.20190737788475   -1.27926835752251
H          -0.67127920702889   -1.35905208699041    0.47443864878137
O           0.52960224019754    0.58822684408326   -1.90777727181685
H          -0.40180158851562    0.31429707930275   -1.99380333940869
H           0.72924943376224    1.40821654607685   -0.66743232359023
H           1.03607050339433   -0.21854388717666   -1.67730867259922
N           2.34906190700827   -0.38486068725870    1.43180748277801
H           2.66759418055254    0.56425637096710    1.27224377849055
H           2.11272304342720   -1.14543009541509   -0.03477824313085
H           2.89733276583270   -0.76726968499015    2.19334573126595
H           1.39184161672112   -0.29539485881235    1.75796286523761
