    26
        -50.46438032  Gyration_radius:  2.41494336982 Dipole_moment: 4.126
 S           1.00207712902425    1.01388333961935    0.80099372685468
O           0.90433532181957    0.86919847059407   -0.65137273291047
O           0.41955872592777    2.39750435148471    1.18023529987745
O           0.21220894211518   -0.02122222940223    1.47503516590549
O           2.38773724132014    0.95263339547074    1.24282023043205
O          -2.74745572914317    0.28682688898324   -1.03862919898266
H          -3.61971540902016    0.48132309536319   -1.38418517925558
O           1.34148515137378   -1.67679233037829   -1.12979994603381
H           1.27539484146675   -0.69543453990961   -1.15757451014408
O          -1.07359582865232   -1.79206778055607   -0.06917444381819
H           0.41800649854036   -1.94948246630202   -0.90644406334036
H          -0.67252981121950   -1.18547485173694    0.58415713854203
H          -1.76430575622320   -1.26692742883062   -0.49663992696109
O          -2.00034330874690    1.47418761231053    1.32826485355246
H          -2.36270681071011    1.13364946587728    0.48707192992198
H          -1.48840206416218    0.73705014058518    1.69415446069584
H          -0.56614455318477    2.26245372414577    1.21920090454126
O          -0.89347885789261    1.55038170499786   -2.43615576538173
H          -0.54272696710316    1.17719730278365   -3.24687241668834
H          -2.10158245505271    0.76395793225002   -1.61560580042126
H          -0.19057742852597    1.42198358119917   -1.76006014083223
N           2.44065518658711   -1.61919119680303    1.19593224421859
H           2.57003997463563   -0.54916546130244    1.27514342989842
H           2.04726999311913   -1.77196949412887    0.17563606028050
H           3.29878275607599   -2.13067182319410    1.37633509000053
H           1.70601322761182   -1.86383139311134    1.85753356004222
