    26
        -50.45526238  Gyration_radius:  2.41580261782 Dipole_moment: 6.810
 S          -1.24880076654716    1.34628578587912    0.53560784782359
O          -0.87059589495784    0.18210799772425    1.29705418494431
O          -2.80018504209446    1.49069584254695    0.58053218728534
O          -0.66280694268577    2.57551574637782    1.05752107962959
O          -0.86974470483197    1.18464040064014   -0.89157847798431
O          -0.73146634730148   -2.71308203210532   -0.01815194226557
H          -0.96972979825119   -3.62261949529491    0.16497353624324
O           2.60207271781414   -0.05512059036675    0.04275429002064
H           3.44403829858334   -0.33572236185545   -0.31930447606898
O          -2.75378655376216   -0.82816201054629   -0.69858780768654
H          -3.09745817750558    0.62308510252844    0.23091612415160
H          -2.17902003263401   -0.27621642747046   -1.24250283368284
H          -2.16638674411943   -1.49794986476664   -0.30733795651966
O           0.90183390342635   -1.68618241361068    1.83751796942238
H           1.67811993499924   -1.26757219360961    1.44810920119205
H           0.23836991998934   -0.97123022248963    1.87597363128200
H          -0.16806556650338   -2.41062983765994    0.73567417632755
O           0.69099228152226   -0.88748110247954   -1.48712491796724
H           1.89342305408842   -0.46049476099469   -0.54737564413677
H           0.24243837821557   -1.67169678833452   -1.12928369987025
H           0.06136201216597   -0.15293020209883   -1.33009455299619
N           1.40716867982313    2.31180868294403   -0.37682909234071
H           0.73561024052359    2.58825247294314    0.42301600499187
H           2.01950727511796    1.50392715889965   -0.09842674481545
H           0.67444420043372    1.93718120276305   -1.02415036214261
H           1.92866566449419    3.09358990043230   -0.75890171483763
