    26
        -50.46438038  Gyration_radius:  2.41491297584 Dipole_moment: 4.126
 S          -0.17857373032658    1.08156637248364    1.21316907693062
O          -0.14817896316036    1.46850160559931   -0.20078560272194
O           0.15909245463736   -0.33351644981606    1.36513736970477
O           0.72717653218346    1.92307236639944    1.98160151501302
O          -1.61860984232655    1.28538956302058    1.74442240847971
O          -1.87681411046351   -1.82048546539282   -1.36937325834267
H          -2.54053969017777   -2.41215525227809   -1.72639985200159
O           2.32501030931794   -0.69168140095172   -0.07820506870405
H           1.60573089413846   -0.72463569676896    0.59237571555781
O          -2.68000353844523    0.67854868549310   -0.54373319526477
H          -2.51799499855263   -0.23779014918638   -0.84195845062258
H          -2.21332296966944    1.02138347371864    0.99071367807671
H          -1.89250926965736    1.17175483837719   -0.81943986444506
O          -1.17974980546491   -2.56965065167556    1.06778227297867
H          -0.74687729191214   -1.71417704752023    1.28766431972140
H          -1.64090881226013   -2.16703855374834   -0.47384897797568
H          -0.51002577262264   -3.24139913249757    1.20855238503302
O           0.51548367352535   -0.41884394345591   -1.98132859449826
H          -0.23537058181231   -1.02831130334765   -1.96232734775403
H           0.23488524313986    0.33416054483252   -1.42459445266101
H           1.82976607767382   -0.76430835971742   -0.93055568794124
N           2.55404322490284    1.85899783004390    0.17106810244457
H           2.07635959836155    2.26143426845708   -0.63340505027025
H           2.60317030085877    0.76521080669108    0.02802577897745
H           3.46253441159713    2.28510361375019    0.32478569105169
H           1.88622663650397    1.98886942748748    1.01065709922085
