    26
        -50.46438036  Gyration_radius:  2.41490766339 Dipole_moment: 4.125
 S          -0.52645800656595    0.61138731723474    1.42191399519050
O          -0.65552701639023   -0.77767494803785    0.98204856137380
O           0.01380026353187    0.68688042206767    2.77154354279095
O           0.32307054328983    1.36706116426623    0.49616096999522
O          -1.93957173722703    1.24424237316083    1.41537735118010
O          -1.25321127179242   -0.29113677226128   -2.65620960313829
H          -1.75026826699198   -0.38991545543401   -3.46937365145692
O           1.79244790588507   -1.57227723290023    0.45462325597066
H           0.84478400645403   -1.49630424757830    0.70829545131715
O          -1.76376637205461    1.91000851050006   -1.08591561527806
H          -0.85864636356310    2.06981832649234   -0.77840982980616
H          -1.68778293169748    1.15916974267727   -1.70670216358735
H          -2.09803819015523    1.51626805287096    0.47073365262739
O           1.35683851174626    0.04173934208886   -1.58902910638363
H           1.01123366667465    0.62536868920027   -0.88504214358984
H           1.81148814428620   -1.15132988697463   -0.43948713391922
H           0.58830891421152   -0.15174550029974   -2.14357222479936
O          -2.12193588654544   -1.98805160048291   -0.82515410354838
H          -1.68136353688693   -1.52358213597217   -0.07831516211854
H          -1.60547639481056   -0.96598894000800   -2.02522916756660
H          -1.80117683447381   -2.89118357894628   -0.79247050296282
N           2.44217565661911    0.40276376256989    1.97040255897035
H           2.56094557521640    1.20217073120225    1.35061296180957
H           3.20787110871271    0.31860961116018    2.63158525700838
H           1.48666860109841    0.54073680399271    2.45599218385518
H           2.30358991142005   -0.49703453057412    1.34562067607047
