    23
        -45.37922836  Gyration_radius:  2.27196501804 Dipole_moment: 2.401
 S          -0.45542165377166    0.24907313614500    1.80329970543126
O          -1.03967982381105   -0.31162226934219    0.59157873216303
O          -1.25255024534536    1.25973494898321    2.43230832997872
O          -0.38923224133426   -1.00210021115531    2.80511200872556
O           0.93552820157101    0.64269643519802    1.58368078094876
H           0.37376602613804    2.02843599437514    0.73536271986065
H          -0.35453586898718   -0.59547464933530    3.66557245038859
O          -0.23410016722714    2.53624051797268    0.16401658897219
H          -1.05289884621442    2.54618235243184    0.67073904812116
O          -1.54573390984271   -0.92099961324505   -1.95771146712069
H          -1.69275443069719   -0.68543289426395   -1.02410905401483
H          -1.10039072170354   -1.77396336469068   -1.92155367733680
O           0.33727056442648   -2.43685918880515   -0.07603752047122
H          -0.21505585887220   -1.68786432404812    0.24810670814097
H           0.49699195234700   -2.98690817570172    0.69212056830427
O           2.06207253900456   -0.39962350283719   -0.57026174560437
H           1.82212517942634    0.01102461367086    0.29078448965421
H           1.64672024774468   -1.28290597277858   -0.53081107674832
N           0.33125480778374    0.97807515385472   -1.95314438128345
H           0.00245712391084    1.66773196756152   -1.23296484974824
H           1.13747153809909    0.43250116737422   -1.48588505405564
H          -0.44183836479793    0.28457424126003   -2.12917722268380
H           0.62853396293431    1.44748364603373   -2.80102609334482
