    23
        -45.35855973  Gyration_radius:  2.43607852403 Dipole_moment: 4.850
 S           1.68801839707384    0.72542584598583    1.42376279426110
O           2.81005231903470   -0.13034365650113    1.66241457182271
O           1.60429265710597    1.29479731225744    0.09351104087411
O           0.40793133800328    0.08160778230543    1.80046873221088
O           1.82915800612073    1.96582359433411    2.41885171914827
H           2.34162450557192    1.61804472558573    3.14298698389977
H          -0.77868118485038    0.60424690564136    1.36578493713640
O          -0.73507550352235   -0.97579632060116   -2.06628517377699
H          -0.60268157093724   -1.42742837975183   -2.90044676408183
O          -1.69081591445231    0.95752620865684    0.88530872121327
H          -1.31856017192081    1.37947034076313   -0.01221931406820
H          -2.17713543184152    0.12733179866212    0.58449740686809
O          -2.75760781819890   -1.09220004968319   -0.30071907919295
H          -3.58070758554606   -0.91053612034967   -0.75760949618866
H          -2.05812270127433   -1.16151943087988   -0.98632025985288
O          -0.59560900381937    1.66347631365187   -1.24899888381550
H          -0.63857191756010    0.82640579949664   -1.74553122243792
H           0.30590858261120    1.67685943394973   -0.84340729442323
N           1.27132745377405   -1.51354015137766   -0.46750356273427
H           0.04599652059883   -1.23013619166082   -1.47371290504876
H           1.82687363245658   -0.66364713091096   -0.51029856150555
H           0.89179594272703   -1.51956306947935    0.47462966830562
H           1.91058946891539   -2.29630556008641   -0.53916406864167
