    23
        -45.37207519  Gyration_radius:  2.32886192005 Dipole_moment: 5.829
 S          -1.44018455676256   -0.03380424033583   -0.10703699538675
O          -1.50121450618596   -1.33023531816212   -0.75830482130707
O          -2.69591496090804    0.44012767928415    0.40119710276966
O          -0.47705500457535   -0.27070861113279    1.17499480104849
O          -0.69582702309639    0.94857540445086   -0.88798970399626
H           0.78230225167114    0.50383363503119   -1.67128307282861
H          -1.03955216277374   -0.90001862607484    1.67624325110194
O           1.69858962715090    0.15346035570717   -1.71098681380956
H           1.57323065578031   -0.82056624418743   -1.63390005556199
O           0.37923634851029    3.02746614661214    0.29323072348150
H          -0.18979089925347    2.32844022419837   -0.11048992500170
H           0.44882906378502    3.72006356791396   -0.36615106924900
O          -2.49994464154406   -1.79782218023743    1.78912587809685
H          -2.41333896491639   -2.33848406776323    0.99604115133249
H          -2.94702408133517   -0.98902966301454    1.47757556951279
O           0.87737021296991   -2.30756445024652   -1.18872833664536
H          -0.03512373474775   -1.97327896798846   -0.99963017000246
H           0.77019182268773   -2.97584599545839   -1.86771711306301
N           1.92194839529174    0.92395878813686    0.72875689555917
H           2.02534100003108    0.58508699174996   -0.30738048298991
H           1.14806861057847    0.35461165390533    1.11514925818605
H           2.76841716489242    0.84998390846608    1.28120634666818
H           1.54144538278241    1.90175001919184    0.67607758207143
