    23
        -45.36494168  Gyration_radius:  2.33593627497 Dipole_moment: 3.238
 S           0.27921862736263    0.45441976897223   -1.72668120288327
O          -0.05065070866119   -0.87508583499479   -1.24920325545942
O          -0.56152736621997    0.98221404745618   -2.73618120074759
O           0.30093508993669    1.41283215260163   -0.51991261253088
O           1.74440370328370    0.44666274877565   -2.21703983579254
H           2.32528977828790    0.19780638769056   -1.44345368171625
H           0.43956885475144    0.94824266237266    0.39317578407547
O          -2.01104164225535    0.64176576953994    2.07865380701854
H          -2.23202934188241    1.54302304331595    2.31861777874136
O           2.97280997471630   -0.18828213113456   -0.01524616854675
H           2.55517522968558   -1.02408929772308    0.26474643801627
H           2.74919468412314    0.45825480556769    0.66147024991682
O           1.21330534038821   -2.16209872012754    0.62466058660200
H           1.13645276416682   -3.11565189249777    0.57079638548696
H           0.68778892190734   -1.79113978076800   -0.12420296102551
O           0.56784482319978    0.29105207268999    1.72604427313561
H          -0.37799027843976    0.39542457541533    2.01046462538434
H           0.70150858842413   -0.66086161195860    1.59398314966473
N          -2.54674341830256    0.42070299642571   -0.55114963151701
H          -2.20492386383494    1.22731835925805   -1.06223013143502
H          -1.93398779320879   -0.34289424051473   -0.82000230135331
H          -2.28273149904882    0.53355354445697    1.12821867367893
H          -3.47187046837206    0.20683055516744   -0.90552876872127
