    23
        -45.34482641  Gyration_radius:  2.82555501181 Dipole_moment: 2.562
 S           2.28707339744145    1.42717167192648    0.80194695167520
O           1.20799298909161    1.36314816802436    1.75154972884413
O           3.12382195452652    0.29915922169881    0.63428950222483
O           1.72980134606040    1.88168531409647   -0.55844924700519
O           3.19505900472811    2.64883388945376    1.23839914125786
H           2.66194622022082    3.25489717215160    1.75090075911241
H           0.76635328572414    2.22030140127800   -0.41037875605282
O          -1.31258299217755    0.25135357206287   -1.24256766451326
H          -0.99567401788445    0.32954778289744   -2.14386353151753
O          -0.95797127215758   -3.46314468448436    0.06150403266461
H          -0.85514221034202   -4.22930949474614   -0.50426952787702
H          -1.73342064682061   -2.97545476194246   -0.28029212137963
O          -2.98743336363283   -1.89015975026854   -0.90398407345244
H          -2.47422326791178   -1.07667081471619   -1.07849541095664
H          -3.63198774364739   -1.66258639849690   -0.23225943455302
O          -0.63548868670166    2.45347225312889    0.07329043477423
H          -1.08594733682297    1.71891421309217   -0.41109741935140
H          -0.45226261277243    2.11617186529377    0.96202599742337
N           0.51334771378692   -0.96706039620356    0.13395657221021
H          -0.57743462076722   -0.24927106971992   -0.72599746967885
H           1.46743783392291   -0.96266599286774   -0.20567376246446
H           0.54219566639378   -0.55199140710674    1.05770904102740
H           0.20453935974605   -1.93634176458841    0.23175625754684
