    23
        -45.38307856  Gyration_radius:  2.27821066039 Dipole_moment: 1.777
 S          -1.16403412191970   -1.40069621525156    0.46009041958399
O          -1.45889340120722   -1.61585433100310   -0.93910660450856
O           0.22157338106598   -1.62979618866454    0.81394627738832
O          -1.63112207590449   -0.08315742113634    0.90725023247811
O          -2.00861411956950   -2.46634697823171    1.26882783893558
H          -2.81993208857103   -2.49444113093588    0.77244255513174
H          -0.43592450009574    0.41622227036665    2.10105628562163
O           0.44412302055089    0.50726555845969    2.50876257768314
H           0.82104567830717   -0.37459222697495    2.41498747677477
O          -0.03080946251455   -0.05402694796787   -2.53424996737582
H          -0.61587978327051   -0.72871181674909   -2.12682043280336
H           0.85408903727787   -0.25496124593106   -2.18688419927365
O           1.62029242735959    1.84592096222535    0.51114003714841
H           2.01837218717794    1.08865107379485    0.05001470972903
H           1.30284886131303    1.48549039532481    1.37214903269540
O           2.02309794103300   -0.58535975361089   -0.76217713211058
H           1.35898124436577   -1.01814518518977   -0.17040943340885
H           2.76442467405846   -1.19046344788018   -0.81495748623819
N          -0.67174224134399    1.74313250762303   -0.73948228368088
H           0.26267986286416    1.96236794383877   -0.25916013525613
H          -1.19572069107243    1.10654325025407   -0.08655869977203
H          -1.20155227043738    2.58004583225559   -0.95337274435131
H          -0.45730354939591    1.16091309534988   -1.60748831441608
