    23
        -45.37163373  Gyration_radius:  2.26881478998 Dipole_moment: 4.952
 S           0.57014813007705    1.79307686776908    0.53986100726750
O           0.61276502798934    2.22984397556263    1.90169342701347
O           0.85586187846484    2.76961531018569   -0.48395899632553
O           1.80324333089379    0.71578204978037    0.40126549436505
O          -0.60346445354884    0.98283611847189    0.22678372183853
H          -0.55710531201149    0.10790890825353    1.61151020644855
H           2.56015635026898    1.28388319650423    0.50742274867651
O          -0.49565157896428   -0.53093534014286    2.35525254445798
H          -0.12507293998854   -0.01491373068937    3.07451221219458
O           1.14185863969049   -1.91649022803105    0.73547713740378
H           1.72012043282036   -1.14595190170648    0.64087208396794
H           0.52231062912315   -1.64858016639264    1.44877436228709
O           0.44344529320075    1.00886290907311   -2.36982089948591
H           0.65194597480025    1.65701612953115   -1.65338820110552
H          -0.25461695535635    1.42662691359626   -2.87939600164852
O          -2.56787599984090   -0.78362074541880   -0.05175888195175
H          -2.12636641027680    0.07928556444360    0.04060694626159
H          -2.52433418229786   -1.17306155544962    0.82673933182212
N          -0.32663656467148   -1.38664609021769   -1.39839252548668
H           0.30443603977776   -1.68480785038679   -0.59120408073776
H          -0.31362685658417   -2.06574635740883   -2.15169102103027
H          -1.28894970477484   -1.26415403350558   -0.99178371385075
H          -0.00259077878257   -0.43982995372089   -1.73937688230401
