    23
        -45.36868867  Gyration_radius:  2.46387027186 Dipole_moment: 2.456
 S          -2.18467211714757   -0.49948819914224   -0.37994831240590
O          -1.77230794328447    0.72116281553875   -1.07061878604214
O          -1.78420987142079   -1.69704994484664   -1.06179939118074
O          -1.73907587623179   -0.48057350614076    1.01807846965021
O          -3.77131400035549   -0.45375298533289   -0.34301175071186
H          -3.97748218477498    0.46020062423889   -0.16297833327200
H          -0.34630699448675   -1.32831296566633    0.84529571311696
O           0.47638457669908   -1.77705748638280    0.52908921786044
H           0.17246480798510   -2.64244789358947    0.24285545592382
O          -0.33909638038327    1.55171352888059    2.00142936010201
H          -0.57429403569458    1.57192957196979    2.93063400899150
H          -0.91232007883395    0.86954791867334    1.59181931369184
O           2.70344752601830    1.30748868733090   -1.02053598210450
H           3.62381463677993    1.08796273603383   -1.17024257066079
H           2.52586631429019    1.12098233514969   -0.05933516541269
O           2.05239761334598    0.47557863746199    1.38258253243758
H           1.25955611414537    0.99139737749188    1.64383302639006
H           1.73406166228852   -0.42782975774371    1.26887269956989
N           0.58881757283397   -0.16805465214726   -1.66009673993559
H           0.56117110980514   -0.62893310311016   -2.56391174490614
H          -0.33637091972671    0.34413479181626   -1.50724173655995
H           0.62566021311773   -0.88066402827407   -0.88992485142736
H           1.41380826501726    0.48206549779183   -1.56484442311845
