    23
        -45.35634447  Gyration_radius:  2.34843110645 Dipole_moment: 6.058
 S           0.65490147656744    0.76935315965571    1.93826859468528
O           1.37888175387300    1.75103013065179    1.16502430890369
O           0.69354847051050    0.85019201055331    3.34817159260338
O          -0.83157609433160    0.79909841140360    1.46443318802427
O           1.11497800226026   -0.64144611713681    1.46710496904458
H           1.78844599723264   -0.50715651363984    0.71923814998418
H          -0.83211491940075    1.27587981000171    0.56199447330584
O           0.50143054073472   -0.06653456555895   -2.11493053648662
H           0.38513928024323   -0.25387616080394   -3.04708271993707
O          -0.50151344941477    2.00882810428010   -0.73667700432078
H          -0.19092463853242    1.31403266298971   -1.35759584426639
H           0.29425766183524    2.38995506686627   -0.33746150813441
O          -2.95377086460344   -0.81906687690950    0.60335978013424
H          -3.69808028416523   -0.23266254197897    0.45818736362414
H          -2.31320904096645   -0.32147260447744    1.13074641581148
O           2.64184427992531    0.03247177948053   -0.45323596238060
H           2.59104752512705    0.92646057102517   -0.08242654881758
H           2.01230520642760    0.00475162216411   -1.20102441571035
N          -0.59033689410535   -1.94494159144726   -0.67645624544649
H           0.05546925289289   -0.82747540070141   -1.60063159229879
H          -0.05098870832462   -1.92086328849794    0.18371332206721
H          -1.54309287522749   -1.68434099304079   -0.42742210107916
H          -0.60664169863064   -2.90221667443339   -1.00529768939975
