    23
        -45.35555716  Gyration_radius:  2.37596698158 Dipole_moment: 6.900
 S           1.37906306274839    1.18982871656005   -1.52920189260417
O           2.00236215523387    0.09824721738138   -0.83899785952894
O           1.91102326460659    1.58849020103688   -2.77858532859303
O          -0.15469355375308    0.84011342044626   -1.67210507720449
O           1.28893650537798    2.41809571363721   -0.59294925399910
H           0.96294787493358    2.12274527053462    0.30415677978001
H          -0.24824348442527   -0.13704191682049   -1.87853743805652
O          -1.32151133073889   -1.88832650650277    0.58868079947648
H          -1.59604360116807   -2.69305296189682    1.02930177322438
O          -0.68907065101928   -1.65571038013799   -1.99630298794279
H          -1.49588336001543   -1.73419127855106   -2.50984640630975
H          -0.92415715403510   -1.84911711329981   -1.05881382159633
O          -1.90032474522738    0.80618557328393    0.49922672112519
H          -1.53442136464223    0.97587491488084   -0.38126375571477
H          -1.87823879260422   -0.16031026365686    0.60611174200504
O           0.22272084011367    1.77818666684590    1.69647100608203
H           0.01042506422198    2.62078453505498    2.10295793419785
H          -0.63543474069379    1.41169693180371    1.34634493925557
N           1.00127035786818   -1.14508501468827    1.47683498180684
H           1.44858396043553   -0.81524870257136    0.61748944357736
H          -0.40469029600590   -1.64035326294800    0.97265333940256
H           1.63549434092548   -1.79900100813796    1.91796217319574
H           0.91988566786645   -0.33281076225935    2.07841218842313
