    23
        -45.35644695  Gyration_radius:  2.47924601375 Dipole_moment: 6.571
 S           1.19328312324279   -0.22834353432000   -1.92630916947941
O           0.05713052538464    0.55538582153445   -1.48310411207047
O           1.83290071108290    0.22769487583146   -3.10308624833856
O           2.17721612316368   -0.30938739115507   -0.71452536348494
O           0.77866763222165   -1.70080557927974   -2.07752188282567
H           0.62470232924225   -2.08414482886516   -1.15273984774050
H           2.25484998952019    0.64909865108443   -0.39263824602942
O          -0.72449540207221   -0.16265550515778    0.90822410016365
H          -0.45626800045930    0.17195789460387    0.01969575321018
O           0.54196975710331   -2.41716285535640    0.37138441842361
H           1.45117757249417   -2.25977719902193    0.64030291680005
H           0.01661939376583   -1.64973059592687    0.71079911861036
O           0.53650930925625    1.84155260145844    2.18635689372781
H           1.00052416530311    1.48426555784707    2.94482064877884
H          -0.01918008964767    1.11718137719128    1.82707932278865
O           1.95482595958280    2.13234090515341   -0.06113658099244
H           1.49043438079213    2.14894756787965    0.81078911740466
H           1.27570987827995    2.30704466617318   -0.72083176159039
N          -3.33701553629281   -0.38024072219109    0.22897105126974
H          -3.22509992886036   -0.04708000419330   -0.72137850932687
H          -1.70396901471170   -0.25352650527280    0.83673778883461
H          -4.04127746901145    0.18931709061400    0.68048217284845
H          -3.67921541937382   -1.33193227862817    0.18762839901023
