    23
        -45.36673440  Gyration_radius:  2.46683824541 Dipole_moment: 5.527
 S           1.74454269304288   -1.55328584553965    0.10222710171547
O           1.39326485332048   -0.72847093888587   -1.06308203384974
O           2.66818326225572   -2.60383607707523   -0.17598535478992
O           2.53537746550792   -0.53309680593042    1.08067988951596
O           0.54631193150880   -1.91674852572687    0.84394101744436
H          -1.08811782730981   -1.75535600219831   -0.31100188021491
H           3.42722919178512   -0.81794850603318    0.91465482828233
O          -1.18170107911400   -1.11440613508886   -1.03024916904311
H          -0.24330066047382   -0.98813818348132   -1.30346463479261
O           0.15947127386367    0.09584519154197    2.45556169846442
H           1.06142410217072    0.41569427243455    2.54475601669241
H           0.25824666040359   -0.75631600519281    1.96350884376490
O           1.23055413613988    1.86844437168671   -0.90743790657465
H           1.41586116392642    0.89622717442613   -0.94106226232650
H           1.31848482946503    2.18043419500292   -1.80948236614282
O          -3.32634719128151    0.79622253526340   -1.16354305407703
H          -4.16284537615677    0.68644728910613   -1.61677472265666
H          -2.79899353232417    0.01143189284819   -1.36597585547511
N          -1.00989865972546    1.19276599291640    0.36859663823274
H          -1.18358716007639    0.30625997723650   -0.17309607463516
H          -0.65686824087594    0.89714491008348    1.32287155705426
H          -0.23353695289047    1.69288582670600   -0.12439806233672
H          -1.87375489317968    1.72779941591760    0.38875577574997
