    23
        -45.37876345  Gyration_radius:  2.39247497942 Dipole_moment: 5.193
 S          -0.29565574365279    0.61907179736713   -0.62087029686077
O           1.01665676441085   -0.03880768775445   -0.48646957667664
O          -1.30659406574601   -0.30897922130998   -1.08339155742125
O          -0.68162812878665    1.22740333169007    0.65419359672060
O          -0.14765171007126    1.74314769424639   -1.67169550753219
H           0.76194551544955    2.13235048244155   -1.49539037631102
H          -1.33304284511649   -0.05133312798588    1.47546853921486
O          -1.68683150214445   -0.93711021788268    1.73006683375847
H          -2.45247961933098   -1.05216997793877    1.16106933846728
O           1.08955071007258    3.01207150138972    1.47535544986140
H           0.60755917517523    3.83168540789426    1.59818193828593
H           0.41299283447150    2.32857565925538    1.27375029189514
O          -0.96430625817035   -2.83983073808483   -1.68192867175903
H          -1.81340176594565   -3.20458369962429   -1.93585190024705
H          -1.09220327786463   -1.86259171319417   -1.62975280163972
O           2.20800759316646    2.36862419585821   -0.87447868241607
H           1.99506579085450    2.75462324102740    0.00254664298589
H           2.28757723097481    1.41686725038358   -0.71609205044262
N           0.29699690454667   -2.26523566272394    0.58778084607663
H          -0.12397045885127   -2.77825416500956   -0.21837017840210
H           0.74966527024737   -1.39008266480841    0.15725894261502
H          -0.48751805055972   -1.87917006039163    1.18679199725654
H           0.95926561695441   -2.82627162487879    1.11182718262373
