    23
        -45.35540858  Gyration_radius:  2.39029256923 Dipole_moment: 7.366
 S          -1.34017677078061   -0.38911738597099    1.79015281792183
O          -1.40225034389806   -1.34407380315208    0.70653363603232
O          -2.04442941475621   -0.72702214195480    2.97048404331958
O           0.16914725572602   -0.10888289028155    2.07487521506925
O          -1.82168919564880    0.98570545083994    1.26105962639495
H          -1.03067524065044    1.57092432707821    1.03909248296970
H           0.66903175912560   -0.94481464243123    1.75431709131870
O           0.86232969113605    1.11168807492261   -1.63465167340813
H           0.98780307155238    1.64131497221402   -2.42354783228393
O           0.32799762571105    2.29278098710574    0.72507981362646
H           0.85049822352242    1.83358758705183    1.39096537737100
H           0.60340828685997    1.93267512548559   -0.14592974994520
O           2.36751330985405   -1.09026583839326   -1.08593229041259
H           1.84091326229628   -0.29963790262698   -1.31517059170282
H           3.26072976627326   -0.79068786670943   -0.91007620482959
O           1.12662142928871   -2.18706623909227    1.03134966632968
H           1.62526161972605   -1.89299721375023    0.23525493839728
H           0.22970652571921   -2.38767077886905    0.72487143177540
N          -1.55051257388075    0.13251967283326   -1.67442865189865
H          -1.54438256735686   -0.49045552816173   -0.86241390803606
H          -0.07441093777296    0.71261598654019   -1.69877987059930
H          -1.86809228990344   -0.40648383218701   -2.47062727214476
H          -2.24434249213572    0.84536388947673   -1.48247810526796
