    23
        -45.34941193  Gyration_radius:  2.67121915723 Dipole_moment: 6.059
 S          -0.67080366547422    2.01255947620853   -2.07677703147740
O          -1.38571969729021    1.57942670104781   -0.89599847588604
O          -0.79605657918580    3.36744474571839   -2.45659761736599
O           0.84988911146604    1.64805064874229   -1.84843645700490
O          -1.02160166016952    1.08602013917015   -3.25206805423103
H          -1.18677040807593    0.17545925773238   -2.85034811915597
H           1.03001439958205    1.60288308680872   -0.89358721308379
O           0.65532327853097    1.05362472592475    0.73251173056256
H          -0.25802903406891    1.28530552378441    0.49632890595060
O           0.25091198449018   -2.66140706935287    1.73030919098791
H          -0.46012345715137   -3.26084343994431    1.49886879164793
H           0.58732620945136   -2.30093700951223    0.89440396637563
O           0.98319147697174   -1.23419427121698   -0.55952810424428
H           0.92323572882754   -0.38497387713095   -0.04868787325989
H           1.76019612379248   -1.16114262712729   -1.11582429201262
O          -1.42061183729970   -0.96951329931945   -1.78380861257893
H          -0.55213722880355   -1.22723080204111   -1.41121647559088
H          -1.78730881866356   -0.32337664582444   -1.16322760131139
N           0.48794679447821   -0.08452738115447    3.11618534437668
H           0.63077443620517    0.72297311873608    1.68161663154872
H           0.38528455093676   -1.05493318410469    2.82097556819599
H           1.31074634363374   -0.02701710948954    3.70247111372500
H          -0.31567803216071    0.15634930240378    3.68243468382633
