    23
        -45.37737254  Gyration_radius:  2.27830451093 Dipole_moment: 5.990
 S           1.30651070362392   -0.35163391668079   -0.99707494785530
O           1.80202486425758    0.99911841612643   -0.78393766540293
O           2.02257493095079   -1.13513027969578   -1.96104736458451
O           1.44836251967090   -1.04848668811728    0.43132160772799
O          -0.14436553070289   -0.33570035138667   -1.24615806715237
H          -1.10196378278959    1.00166738095345   -1.20266456286034
H           1.21167190272460   -1.97561629135597    0.21209279805260
O          -1.61581770118486    1.82708032197327   -1.02282395071255
H          -1.60088222399003    2.32648690299154   -1.84035121882272
O           0.70174383373976   -3.16227696404165   -0.91724712880513
H           1.24978277337491   -2.65793308493680   -1.55003270654224
H          -0.21102230843885   -3.02103867427259   -1.18106017134084
O          -0.14816049732045    0.02708447297884    2.45537562584790
H          -0.91082564343286   -0.38609713999958    1.98941510933039
H           0.61697326154898   -0.47155136782613    2.13654586153092
O          -1.88689137031556   -0.91217178156863    0.66628460034762
H          -1.23996622082686   -0.80587540738858   -0.06421691924410
H          -2.62793405973310   -0.34775483565596    0.43617391430940
N           0.22192002113514    2.11821066119569    0.90949398172371
H          -0.62352576694521    2.22800717501284    0.30887108082627
H           0.97355423101037    1.71960726278730    0.24932883458121
H           0.51506140925935    2.99629353873692    1.32288000356373
H           0.04117465437340    1.36771066015667    1.64883129547149
