    23
        -45.35242542  Gyration_radius:  2.68167111626 Dipole_moment: 8.536
 S           0.23660119492409   -2.98767201586850   -0.07336583046648
O          -0.67322772941220   -2.56351920764615   -1.14635982696281
O           0.69180200110637   -4.33493119608792   -0.17533590733520
O           1.56436974079819   -2.05923375214916   -0.31111426474675
O          -0.25227819182425   -2.54605618796177    1.22291273062489
H           0.35909604358385   -1.12025214998670    1.62144932234477
H           2.06427007816753   -2.59714933786351   -0.91704105072987
O           0.65400006151416   -0.17775664951021    1.49100279383132
H           1.38163837971769   -0.27304025604547    0.86623501391890
O          -1.39089400641149    2.02644519450839   -1.29941526017617
H          -1.26717883435171    2.47893810592983   -0.45518751957183
H          -0.50711355656064    2.01799386614762   -1.69877697018096
O           1.35432846612898    2.18648256145141   -1.22838467935701
H           2.10316490833336    2.74733800101782   -1.43161334521274
H           1.08254688903023    2.38381218401749   -0.31792258168950
O           0.00808854961062    2.44316121943936    1.22315739904399
H           0.10962266494449    2.94657007882154    2.03191780545118
H           0.21395411692110    1.51504945273861    1.45016724782200
N          -1.56902464051419   -0.40034441674995   -0.17661232714805
H          -0.84224039313710   -0.23598091805421    0.54488429529333
H          -2.46207203791084   -0.59005259187611    0.26624763937169
H          -1.62019654736904    0.44993306840866   -0.78937640731256
H          -1.23925718728157   -1.30973504264994   -0.69746826684023
