    23
        -45.37737910  Gyration_radius:  2.38249397358 Dipole_moment: 1.597
 S          -1.59931821997995    0.74177149189835    0.50028572677485
O          -1.12277153933928    0.50491714091822    1.84569411275253
O          -0.59584291219821    1.42158257095732   -0.31405626870917
O          -2.10622295506799   -0.46150314509861   -0.14130256572547
O          -2.84100547233976    1.72695899014956    0.58285567283371
H          -3.59422823723848    1.15481889756977    0.46697695655963
H          -1.05080465678690   -1.61580840350711    0.49329856782107
O          -0.28649245306347   -2.03035307617626    0.94729910108628
H          -0.39305236544483   -1.78266212759227    1.87063235450720
O           2.00496373250847   -0.65259909011616   -2.50576785905701
H           1.03316249527137   -0.55161108609061   -2.63802045462707
H           2.41989903218158   -0.07137219090621   -3.14441876016257
O           1.45571846513785    0.78219131705885    2.55629200198999
H           0.49834774279114    0.71486250468901    2.36037942857709
H           1.52993779244765    1.39212829738192    3.29066039615053
O          -0.61703696676778   -0.09687210836761   -2.52221688453515
H          -1.24365648404180   -0.73783134845172   -2.17139051567855
H          -0.63486989518242    0.62532333634479   -1.86677376301457
N           1.46438329126771   -0.21576210132160    0.07344124218974
H           0.91552688917813   -1.06151191019483    0.38688685071436
H           1.95140492605851   -0.41355968026558   -0.82751572315553
H           0.75155426855233    0.53739831133581   -0.09102079470181
H           2.06040351194638    0.08949341974999    0.84778117741543
