    23
        -45.37985881  Gyration_radius:  2.2582098394 Dipole_moment: 2.610
 S           1.05583385941339   -0.84115009070591    1.32317436418764
O           0.35429754938972   -1.81714505509748    0.49155933049090
O           0.58441581885391   -0.78445706551397    2.67596355647101
O           2.57574200661258   -1.32904067415312    1.37617699378720
O           1.11113579081743    0.45739400791652    0.65737942821552
H           0.51995087714073    1.93168222547942   -0.17559073553179
H           2.62571913738162   -1.83469502573753    2.18160744790619
O          -0.14943442464509    2.48465723258280   -0.61740879131425
H          -0.82826066836530    2.61899268223575    0.05235520532438
O          -1.31308281489955    1.02519225772166    1.68141772260172
H          -1.38474597433434    0.68781683817915    2.57811886345142
H          -0.38889247603216    0.83617608508277    1.43424732493617
O          -2.04631817501199   -0.85972989930609   -0.13144251534005
H          -1.27882712046414   -1.41587868448665    0.11946850683678
H          -2.06349880456663   -0.15890013900134    0.54950258959274
O           1.46295912153147   -0.96056697852521   -1.70814550837596
H           2.05071643122769   -0.33081454536611   -1.27935444685923
H           1.08420710130592   -1.46850137355087   -0.95393446515238
N          -0.80841330623992    0.36036167034155   -2.08673735165676
H           0.11234378278645   -0.16719878235018   -2.09971034170949
H          -1.43632882156645   -0.16209656818368   -1.38988923436776
H          -0.61633886507477    1.30795769280401   -1.66938672820177
H          -1.22318002520265    0.41994418961602   -3.00937123531891
