    23
        -45.37197246  Gyration_radius:  2.39289164998 Dipole_moment: 5.113
 S          -1.61282885088429    0.78777856150554   -0.07293067463218
O          -2.18816644787125   -0.08001394115720   -1.07818592138415
O          -1.85251611883379    0.34678231194876    1.29189347808758
O          -0.16388327705303    0.94375737102393   -0.31764106085281
O          -2.24725499720983    2.21419659234904   -0.19688398935234
H          -2.10682655881620    2.45204498963892   -1.13351930765429
H           0.04758803722151   -0.67245874008474   -0.54947136811537
O           0.11366837166383   -1.65642136154294   -0.55648363986404
H          -0.69237306519204   -1.93017732585710   -1.00357055393419
O          -1.38284687501674    1.89243639114844   -2.69506589536138
H          -1.79647927200390    1.04083085813431   -2.47029861175880
H          -0.48215252922148    1.82724179646211   -2.36151517328703
O           1.92256148793148    0.66384732675738    1.35663085824965
H           2.47981047654067    0.08725554326528    0.79772200117966
H           1.24454293308410    1.02510349092062    0.75112268501413
O           2.84940344813642   -1.23687592105789   -0.37018574401678
H           3.22325035558061   -0.98001037463024   -1.21448357787888
H           1.95632561185210   -1.57025917123509   -0.55168592679340
N           0.14330863467540   -1.06187508209029    2.11368423165925
H          -0.73928563822849   -0.47996955498853    1.91930799021657
H           0.20423751497957   -1.72290337153621    1.32473154903634
H           0.96369108169314   -0.36735864369005    2.00091099971164
H           0.11622566692594   -1.52295173533840    3.01591766175241
