    23
        -45.36764309  Gyration_radius:  2.56327877426 Dipole_moment: 3.536
 S           2.05266295127238    1.52819715564029    0.75484721297033
O           2.23860604121841    0.17366365370291    1.26837948656977
O           2.82702044119849    2.53613797467579    1.39988445278697
O           2.59080674548922    1.46797749636446   -0.77475869735872
O           0.62666546153998    1.82822681330854    0.59263642331601
H           0.20991031050961    1.26417498226540   -0.89938139626571
H           3.45877718525525    1.84144145320996   -0.66551049506973
O           0.03946854900261    0.68102766667373   -1.67775556112159
H           0.79360784100780    0.81683323835035   -2.25493327548175
O          -1.45461101284606   -2.98325831743008   -0.58965921202337
H          -1.92687605393429   -2.14064805635610   -0.75332256779501
H          -2.03665909918316   -3.67939097754137   -0.89351883166990
O          -1.48071752360196    0.58370915806867    1.56161513446126
H          -0.75255956529069    1.17036673127032    1.24907681302896
H          -1.69732334703289    0.87205804461101    2.44879851950736
O          -2.45746766084677   -0.45333684650026   -0.89977211868219
H          -1.83064270169317    0.03117072203983   -1.45157822156146
H          -2.42779469221900   -0.01924146990677   -0.03633312947702
N           0.25704858335300   -1.13937103560687    0.32791619422086
H           0.16774172891169   -2.15057203911427    0.21278588801572
H           0.15237347006471   -0.67128189177964   -0.59758484792427
H          -0.51586727731889   -0.79229272305964    0.92117100383625
H           1.16582961513713   -0.76559174288377    0.75699724571983
