    23
        -45.38062494  Gyration_radius:  2.25474431714 Dipole_moment: 4.365
 S          -0.61094198058222   -0.19879438558336    1.78300444056840
O          -0.24408265843258   -1.46383148980126    1.15691510035172
O           0.34530458263072    0.85470552291691    1.45390609872293
O          -1.98328738980837    0.17406661014055    1.54534585758560
O          -0.46987261673067   -0.41282958573612    3.34842098442780
H          -1.32662363789313   -0.76268997181775    3.56793024386921
H          -2.30924683494664    0.47978329479057   -0.11730244090854
O          -2.20903302738180    0.61611048234646   -1.08064942457379
H          -1.55370425788372    1.32019829990499   -1.17111451255140
O          -0.78310303909724   -1.57202762525662   -1.44725068998802
H          -0.67205287295861   -1.74392012856307   -0.48874451663124
H          -1.46714383452889   -0.85857975778268   -1.47989232595165
O           2.25943515727336   -0.79602744361275    0.70296235968135
H           1.53400507934413   -1.41879350779970    0.90021468629614
H           1.92952718335535    0.01109823648450    1.13629921605139
O           0.20340554961844    2.09745103044057   -0.81683852711463
H           0.21527301128407    1.67561052144782    0.08239594393500
H           0.36838747367191    3.03035056552530   -0.67333462500767
N           1.38094046799485   -0.19776333002983   -1.71195739082095
H           1.95426917361556   -0.32034124756750   -2.53831380041393
H           1.89710940394144   -0.46159199273320   -0.81732225882005
H           1.05495841161850    0.77853988217016   -1.60778230690182
H           0.48647667589589   -0.83072399988389   -1.72689211180659
