    23
        -45.35994392  Gyration_radius:  2.38109117558 Dipole_moment: 4.070
 S           0.19650591882530    1.57548242520391    0.34814728524382
O          -0.04072566967491    1.01593934562896   -0.96011438312444
O          -0.86164192948502    2.39346213653056    0.84956122837369
O           0.48047061029538    0.40225919396522    1.33485442750445
O           1.51364284250261    2.33742544962174    0.38406993161175
H           2.28842296036957    1.68156598845917    0.20256483817516
H          -0.26741769198750   -0.25281150126975    1.31499972865113
O          -1.59570356091370   -1.18145798194492    1.22641474363202
H          -2.00333733381688   -1.19335222844669    2.09461766371010
O           0.22331135686333   -2.82900772204244   -0.14057146817813
H          -0.40661200497260   -2.33136896252165    0.40115160062523
H          -0.28976741731822   -3.29809854963302   -0.80101662157431
O           3.34414428460081    0.68662310269290   -0.17278913443932
H           3.91046108920984    1.05966358738376   -0.85239617373460
H           2.81563015553367   -0.04132142223400   -0.61819748787615
O           1.74182212342674   -0.91964348508492   -1.41803242899622
H           1.37674218661779   -1.67507651152665   -0.92201670159144
H           1.03357553733337   -0.24791935236737   -1.42054480588460
N          -2.79740951340230    0.61286001332901   -0.22290368510524
H          -2.38350535510898    1.42914449661342    0.22637924960906
H          -2.15318758910711   -0.56129598594567    0.64560214451079
H          -3.78323945027764    0.79018888145422   -0.37330706193987
H          -2.34218153950697    0.54673908215018   -1.12647287920814
