    23
        -45.37104627  Gyration_radius:  2.37995386407 Dipole_moment: 5.530
 S           1.65990654526463   -1.37406588634477   -0.55776333601624
O           1.55746167586920    0.07498941346000   -0.73081428377604
O           2.90859368927410   -1.95573479022852   -0.92476162008998
O           1.58014936694261   -1.57479029376399    1.06166724994035
O           0.46979647760271   -2.03381905795603   -1.07688572049903
H          -0.44424659427513   -0.80667924623464   -2.46388259899432
H           2.34664667954053   -2.12858491319184    1.16646755967450
O          -0.42938408580484    0.15870320933485   -2.41312106751301
H           0.39916737864648    0.32158551172008   -1.90712654567465
O           1.25563580320844    1.27531666458526    1.57693304262691
H           1.44562456176447    0.89411936832483    0.68871565797496
H           1.33802711509676    0.53839882404916    2.18512722584844
O          -0.91208062641176    2.66252131187594    1.00281820148437
H          -0.11347793415181    2.18227059299267    1.33464800406947
H          -0.57181543117788    3.42021129226748    0.52400130253169
O          -1.23890745160327   -1.56520392439064    0.80506325608920
H          -0.65190470538944   -1.51236877907411    1.56288024875791
H          -0.65017999876997   -1.85449393473325    0.06078686922362
N          -2.01574362594695    0.66854860097200   -0.37996343642621
H          -1.45884293902456    0.54515745728685   -1.28456046876675
H          -3.00875929725547    0.75562713318428   -0.56511860175211
H          -1.81394818914287   -0.20003666078239    0.19153174610468
H          -1.65171840432443    1.50832810664360    0.14335734519836
