    23
        -45.36010160  Gyration_radius:  2.44719955617 Dipole_moment: 5.670
 S           0.51696857284849    0.80015441880891   -2.28588531901308
O          -0.29722522306028    1.10711500726529   -1.12276806642245
O           0.29793265494759    1.58719691106030   -3.43775994019420
O           2.00033825815433    0.88532633333738   -1.86819831742761
O           0.29542127650982   -0.69705598226738   -2.62564749578559
H           0.23566464219472   -1.22650366656734   -1.77778543574572
H           2.14380054025011    0.37339706457803   -1.00419984979001
O           0.08142130884109   -2.02245743666328   -0.41254980693235
H          -0.12524371829547   -2.94420845381430   -0.57394543261192
O           2.12893887136348   -0.38347226189059    0.34891231570901
H           1.48616349219783   -1.10193502761836    0.22230467512242
H           1.69246651172597    0.27789592994440    0.91548075200644
O           0.57948350634861    1.66115919814428    1.28412821032806
H           0.83815867874469    2.58387671698704    1.30593095123703
H           0.17822126273768    1.50955423714763    0.39485153414035
O          -1.23357211330929    0.36778884466562    2.92989378583795
H          -0.60208975483262    0.90810923434747    2.42381520877152
H          -0.75087920219270    0.01519823025330    3.67863076717979
N          -1.99875400315776   -0.73354874671197    0.35620471035889
H          -2.94589472341056   -1.03004323682188    0.16202704640135
H          -0.78271636193805   -1.56941109878747   -0.05529467414180
H          -1.80015004989103    0.09733658956238   -0.19563041764141
H          -1.93845442678545   -0.46547282493471    1.33748480860351
