    23
        -45.36932473  Gyration_radius:  2.59074790468 Dipole_moment: 5.515
 S          -0.31520395976382    0.29982503864696   -2.31696646170386
O           1.03252125124100    0.64860251593836   -1.89189694729387
O          -1.30629668133578    1.28197999709523   -1.92631300819042
O          -0.31278691778668    0.32451192506435   -3.91032458551043
O          -0.66162032411218   -1.06054554436294   -1.91954891989180
H          -1.86307050287007   -0.86471643638807   -0.49909445611079
H          -0.97181085826644    0.98686610299425   -4.09288399118929
O          -2.10980818202038   -0.15447367532527    0.11705930494320
H          -2.03968973745938    0.62660685569717   -0.46850445995463
O           1.41355795869618   -1.62103424382628   -0.42387406116484
H           0.61944045465114   -1.64764382784730   -1.00509280392169
H           1.96513675587809   -0.96897391887626   -0.87315907183425
O          -0.07769600175562   -1.01949140412045    4.03090242159632
H           0.16521938617382   -1.93445421940189    4.18826070758589
H          -0.96751714575922   -0.89408833476777    4.36834670323351
O           1.21589944051034    2.13780143015294    0.25384825872285
H           1.09057409933897    1.67878967113609   -0.61223521157448
H           2.06349071485766    2.58075085768218    0.19635049468843
N           0.21798052516881   -0.07975068182557    1.38799437400875
H           0.75766713561274   -0.77840565185383    0.80490883767319
H           0.62932894660271    0.85663075028879    1.19976140901822
H          -0.77243261632202   -0.07620108154200    1.00756203958486
H           0.22711623877096   -0.32258612458656    2.38489940728240
