    23
        -45.37900968  Gyration_radius:  2.28291037392 Dipole_moment: 2.259
 S          -1.65196504025167   -0.31213270060559    0.80610292930763
O          -2.78588763116473   -0.83873157689422    0.08782315587598
O          -0.41143499693706   -1.03343221500359    0.55396965684233
O          -1.47286393614625    1.12280369682396    0.65427699043032
O          -1.94301729615052   -0.56549703018219    2.35882668483417
H          -2.88880826215701   -0.47314389938367    2.41478565678925
H           0.05600431113123    1.75914476124928    0.44688143487951
O           1.01371332371351    1.89773962099591    0.25775197960492
H           1.46599848208887    1.33991124372101    0.91853000709725
O           1.65037534129229   -0.16403243034940    1.91471866642113
H           0.83958757397231   -0.52451791870871    1.48342923855979
H           1.44492970666130   -0.10597468931872    2.84856929461883
O          -1.65077359080871    0.36144363574406   -1.96508007376061
H          -1.79170513675628    1.20672803425289   -1.52327369365683
H          -2.12011599192881   -0.26745859185026   -1.38014760395611
O           1.84374303358561   -1.84310084203300   -0.61606009371288
H           0.94636977820910   -1.88505338249445   -0.24012780631433
H           2.39823119102904   -1.56176717846967    0.11950638202213
N           1.02882499413454    0.37778327774502   -1.85933944050825
H           1.11795448839263    1.08734442680369   -1.05078054193115
H           1.43555947535458   -0.53154803316718   -1.51710181961287
H          -0.00633176431795    0.25226124830013   -2.00649448400484
H           1.48161193705123    0.70123053280896   -2.70676652980082
