    23
        -45.35094063  Gyration_radius:  2.37620050454 Dipole_moment: 8.138
 S          -1.12552385964862   -1.95565850204410    0.59458118763529
O          -0.97051256606861   -0.63718382130367    1.15211526105994
O          -2.33596485753998   -2.63718268977665    0.85930700193178
O          -0.87917902699903   -1.83541550925497   -0.95322406911142
O           0.07339306877434   -2.83386568133971    1.02078873891747
H           0.87458738036841   -2.38233318587981    0.64715256884144
H          -0.95243591138313   -0.88979415864859   -1.24492281819484
O           1.60035223128586    1.02857197557579   -0.76903103912888
H           2.30673923162395    1.62822660557848   -1.01294702197718
O          -2.05327764625361    1.84238108302638    0.42315187725650
H          -1.93076367587101    1.68298338691113   -0.51725569380936
H          -1.89177162550680    0.98252944215538    0.83721089864534
O           1.95953674266594   -1.61558516537457   -0.29789708812306
H           1.85486691266490   -0.64723713381183   -0.41352395997275
H           1.77404339116921   -2.01284955590484   -1.15206716899626
O          -0.78756846589274    0.60913547004693   -1.88755174446143
H           0.09125005053108    0.84518927281068   -1.50954790725306
H          -0.68391993330103    0.55335413073563   -2.83954386239251
N           0.63165650232530    1.71860558482393    1.51469639616322
H           1.11540693085724    2.10277349954597    2.31592413301589
H           0.24339438248982    0.81321275850016    1.77075446792149
H          -0.17521351321463    2.30345771245277    1.30613901519240
H           1.26090423690109    1.33668446114926    0.15569081683707
