    23
        -45.36495050  Gyration_radius:  2.40725914432 Dipole_moment: 6.496
 S          -1.91412781938733   -0.03088381444822   -1.21351398995716
O          -0.84140233078297   -0.93467099397292   -0.81553238661724
O          -2.90183672006023   -0.57183576489731   -2.08791972547643
O          -2.73007279153148    0.22700222231509    0.19447755010688
O          -1.39497229442012    1.28480268379307   -1.54994611443800
H          -0.09221084267280    1.80900773464494   -0.92933891097311
H          -3.58495543999512   -0.08496246504927   -0.08282138397983
O           0.71079376013371    2.11250275359288   -0.40232781039542
H           0.78037189143555    3.05672686817606   -0.54895817989236
O           0.32946716170325   -1.71985021079778    1.45029902339183
H           1.29320114573997   -1.73334180485098    1.22295276550889
H          -0.13685742009115   -1.77379174814192    0.59428615440957
O           1.67152583957425   -0.29907612026167   -1.50384437176732
H           1.64606461675233    0.64163193384189   -1.28816892738592
H           0.74772290523066   -0.60298279073941   -1.39759112495743
O           2.80206425134199   -1.53078192138494    0.53838675881773
H           3.24152987322309   -2.32075477251161    0.22144419437089
H           2.48989849636874   -1.04809801928020   -0.27024597169371
N          -0.42173820295474    0.72843255695318    1.59549924605853
H           0.16097704453692    1.30697468502139    0.94404088253678
H          -1.35668446616251    0.63555813582328    1.17323843482812
H          -0.02134899934982   -0.30225471662924    1.63881028560268
H          -0.47740963861595    1.15064558877884    2.51677360189923
