    23
        -45.36963245  Gyration_radius:  2.27077435641 Dipole_moment: 5.880
 S          -0.38896507557692   -1.39712782568140   -1.50389733988503
O           0.53908498696763   -1.40520414332663   -2.59467140523197
O          -1.45575830651321   -2.35068298524267   -1.50525709532585
O           0.51963554827704   -1.82971713042082   -0.18974242455065
O          -0.81995571059173   -0.04000253867504   -1.13943363806603
H           0.72285532375621    0.54239651648314   -1.37422393977086
H           0.71708574288570   -2.73439083110531   -0.41176680709117
O           1.60894181852957    0.96179048913035   -1.36263552525766
H           2.07441001913559    0.52234496916814   -2.07846090812229
O           1.98859952697307    0.05094509933456    1.13189880162168
H           1.67917635753655   -0.82347168377182    0.84932716857626
H           2.06570356459791    0.54004596426037    0.28325306603174
O          -2.06018295665306   -0.93675653870062    0.98026384790939
H          -1.75553189234603   -0.66328450977788    0.09059516281818
H          -2.18788339865633   -1.88435019046690    0.90213384847079
O          -0.66460012517704    2.48869700490968   -0.21294905902657
H           0.21372339057108    2.63714721274075   -0.58072783802311
H          -1.00643209355050    1.72573435350013   -0.70970909785866
N          -0.36354099424807    0.92508222101128    1.91843790660355
H          -1.02692867936265    0.13744185007780    1.72787181807235
H          -0.54971333684359    1.66579301458810    1.18423260908091
H          -0.48221471541938    1.28719664437640    2.85799628770098
H           0.63249102568321    0.58037303759960    1.73746458131659
