    23
        -45.38003231  Gyration_radius:  2.27975147932 Dipole_moment: 3.120
 S          -1.03947120547975    0.47750452045916    0.40639076575060
O          -0.95020756307474    0.91834124787525    1.78505413625723
O          -0.44080498435722    1.42024863387858   -0.53411435494026
O          -0.47033199689748   -0.86068567216112    0.25491532616874
O          -2.55114630016896    0.39160191794143   -0.00762979968370
H          -2.92764976721362   -0.24151598096331    0.63403697229713
H           0.70857840638161   -1.39475189226052   -0.90693048245239
O           1.38992892860119   -1.30250679931140   -1.60463171197547
H           0.88955094812310   -0.91923173445846   -2.35055508367016
O          -0.41909720494317    0.21495635542335   -2.93117826463958
H          -0.50193252618222    0.74708147260917   -2.11539969060833
H          -1.30832410054135   -0.06443087142860   -3.15400946206570
O           1.56887594835715    0.18985282479361    2.12554692886494
H           1.45244069023958   -0.76353267786331    2.14456876350574
H           0.65612521964410    0.55893143353205    2.13131422216300
O          -2.51132997079181   -1.34054082643647    1.99518461281211
H          -1.75414505397983   -1.64826089848131    1.47606260364142
H          -2.16624490597400   -0.61839595672066    2.53508279594057
N           2.11952339985799    0.86834142526471   -0.38384986484394
H           2.04256808372865   -0.04691089034288   -0.94963050770281
H           2.89153176120275    1.46101053215175   -0.66771027050995
H           1.18267442043843    1.32486733946223   -0.52452964801883
H           2.13888779302900    0.62802648704667    0.64201201371045
