    23
        -45.35225002  Gyration_radius:  2.40909451153 Dipole_moment: 3.880
 S          -0.25846356477271    2.05705000622330   -0.37287948561062
O           0.55155663156879    1.69502991949781   -1.50031594881057
O          -0.61014526983838    3.41477011173692   -0.18825051830468
O          -1.54839135682760    1.17268448786083   -0.40825399121167
O           0.43587951118897    1.55973064931756    0.93129757537418
H           0.63328458330720    0.56751522281535    0.86488532893923
H          -1.41250501528223    0.43612763680476   -1.07843149654999
O          -1.24348459652480   -0.80763038729590   -2.04343884294396
H          -1.41884905127646   -0.49066566424063   -2.93099962233588
O           0.79198914466969   -0.96897025816752    1.10792376188902
H           0.90324444847959   -0.88647072071302    2.06910400431485
H          -0.12102983674050   -1.31712156573843    0.97448126833728
O          -1.76987390987134   -1.55935094535087    0.60312020217712
H          -2.19797000727797   -0.71663123277003    0.78309396300087
H          -1.77610191643653   -1.65416397042683   -0.35852063687987
O           0.82687215748994    0.36414635897771    3.51996010495751
H           0.56170195425038    1.09031590242666    2.94192456925640
H           1.53939210539600    0.69429585003316    4.06977551816329
N           1.34061612503180   -0.99522534776691   -1.81591876141488
H           2.00720238716573   -1.39517661384505   -2.46246113863001
H           1.43374853801615    0.01956918761223   -1.83043155934170
H          -0.23886705606422   -0.97278813175981   -1.99649516279593
H           1.57019400430997   -1.30704049525716   -0.87916914155064
