    23
        -45.35575851  Gyration_radius:  2.34490758512 Dipole_moment: 4.790
 S           0.81421017266702   -1.92246534858758   -0.23013558476309
O          -0.61126493223585   -1.96578518241098   -0.33082129459563
O           1.41526792813162   -2.06890457819754    1.05185246422153
O           1.37271939002138   -3.08383199391039   -1.14604672014531
O           1.33811777091321   -0.65917345725192   -0.91482276921988
H           0.57704463793057   -0.35208163866705   -1.57203849323091
H           2.22667351036200   -3.33125585226762   -0.79815294816277
O          -1.47048936442092    1.80727474199563   -0.65985369461116
H          -1.83409705225900    2.66040810653980   -0.89922868046852
O           0.44220472944304    0.17768135003214    2.42300790746337
H          -0.51150411878550    0.05505716584956    2.25208469171924
H           0.86777788146997   -0.64470286754662    2.15031589516584
O          -2.01914223112424   -0.18685635638423    1.28461873191380
H          -2.02330328909717    0.55698638579562    0.66477976695861
H          -1.71588247824011   -0.95269031795367    0.77905428221765
O          -0.66228257104179   -0.09287425383777   -2.27919421301852
H          -1.03587066338547    0.67966022629473   -1.77714448180547
H          -1.13228165117126   -0.86867294143780   -1.94355978810431
N           0.89026617306637    2.09075395589586    0.40992569120061
H          -0.56374824865264    1.98032805562469   -0.22825096239120
H           1.57441490744296    1.64204608825239   -0.18733506239189
H           1.26429874459338    2.98287920369920    0.70736675226279
H           0.79687074436509    1.49621949849092    1.24357848980300
