    23
        -45.38497732  Gyration_radius:  2.25778652843 Dipole_moment: 2.531
 S           0.11115935547429    1.72717216922644   -0.70339011216028
O           0.79024235769753    0.70335022353111   -1.49556234884571
O          -1.30961451629809    1.77020471119058   -0.99239112539377
O           0.41804881895097    1.62389051164611    0.70786263751490
O           0.70508921068477    3.11599571031229   -1.17966928154536
H           0.33178112738698    3.20151500335324   -2.05044575749050
H           2.16332655389249    0.81397621735425    0.86112997388347
O           2.58537137315765    0.11720923583771    0.33528094412392
H           2.17294795555061    0.25731083371065   -0.54101050879256
O          -0.37720946900792   -1.68600313275932   -1.32658766327656
H           0.06086315430268   -0.84560182666808   -1.57895307581471
H          -1.26233981895880   -1.41958263292983   -1.02524595023651
O          -0.86737323587522   -0.27935688240680    2.06221708146356
H          -1.62457626953861   -0.39649537555948    1.46297807731040
H          -0.43205647125130    0.53778996037536    1.74180668690435
O          -2.48906199589353   -0.37153091381776   -0.15177397620852
H          -3.43146831996418   -0.28800192370501   -0.30560540395724
H          -2.08297205295078    0.47494180762666   -0.47859314762674
N           0.92279484747538   -1.84726548870370    0.94990722616728
H           1.72866737674617   -1.17741119424406    0.77881748445898
H           0.43957740066053   -1.98058134942894    0.00948823431377
H           1.22861763674636   -2.72168175942509    1.35976394549732
H           0.21818499100912   -1.32984392451320    1.55997601970368
