    23
        -45.36978046  Gyration_radius:  2.58717096694 Dipole_moment: 2.382
 S          -0.60730911658029   -1.38033884567053   -1.47348416868769
O          -1.39930668159454   -1.09558440451332   -0.27451339305030
O           0.03949542717110   -2.67232326096943   -1.40230880177627
O          -1.63415867418119   -1.43992201223744   -2.68701208760260
O           0.30078830665830   -0.28652637467740   -1.77698772142315
H          -0.83757238155787    1.15039923638810   -1.56264574895551
H          -2.10957234062904   -2.26167846390252   -2.59167431135377
O          -1.56644386869042    1.48871208107726   -1.01740693826847
H          -1.91433597854271    0.68120529414585   -0.60892060456379
O           1.82142367809778   -2.73242111387735    0.54982715466895
H           2.63816146758762   -3.05461178946449    0.16501522480159
H           1.13756043903080   -2.83262698951484   -0.15381199837114
O           1.03817558895905    1.87347380302421    2.40074363458448
H           0.64232304399891    1.86840180447062    3.27360632385293
H           0.45139531492636    2.43764445083030    1.83920863588485
O          -0.65453021355160    3.16594915735667    0.83810987993703
H          -0.42158851375430    3.96163327517147    0.35804831506259
H          -1.04934281705231    2.55375700410878    0.17020107181415
N           0.84555333231356   -0.26877074624074    0.82566799813135
H           1.00709796830150    0.50852398132363    1.51824205560277
H           1.01703933242647    0.03427157065710   -0.15092588720402
H           1.41024333116121   -1.13174564305068    0.98383469872922
H          -0.15509665451609   -0.56742203438950    0.77718665823490
