    23
        -45.37692318  Gyration_radius:  2.39583825578 Dipole_moment: 2.456
 S           0.51160369272243   -1.39144243315828    0.90909737614990
O           1.50208585850810   -0.52112905349255    0.26421070478403
O          -0.70088922667053   -0.67307333282069    1.23882827535844
O           0.29738664485446   -2.60550520523374    0.15233125347116
O           1.15050165136888   -1.82805844711266    2.29491055003123
H           1.75939920249400   -2.52400355499732    2.06624929273637
H          -0.15140717419760   -2.54108580908225   -1.43610103126802
O          -0.49424931469371   -2.31252705419627   -2.33358831755598
H          -1.42170362340844   -2.55709580494415   -2.32392450449897
O          -0.42462052206485    3.15375689133849    0.63022517130140
H           0.12528675766955    2.56869780731853    1.20535152610041
H          -0.84498427262606    3.78267646917577    1.21815965130307
O          -1.76149840446003    1.12090922933993   -0.47773820364281
H          -1.59957952352562    0.45199667955439    0.21557105408931
H          -1.40102813589620    1.96045021978163   -0.11135294958570
O           0.84126473179029    1.33598756523175    2.11809524211999
H           0.12526588615436    0.68115089361380    2.15192247056822
H           1.48688041413540    0.91311288136653    1.53483202602450
N           0.21204384050330    0.21519451922786   -1.89643554017457
H          -0.07664801735261   -0.71559453619732   -2.28780324161187
H          -0.65309908148295    0.67822102575589   -1.44184341235651
H           0.86897324151613   -0.00075576374700   -1.09769262429382
H           0.64901535464980    0.80811681327882   -2.59330475904483
