    23
        -45.35225008  Gyration_radius:  2.40930576092 Dipole_moment: 3.889
 S           0.54609887931936   -1.66947939986979   -1.16307449127009
O          -0.78604843298741   -1.44582124460059   -1.64654518839980
O           1.27199030981886   -2.78501098754288   -1.64261895986265
O           1.36622141472979   -0.35846217673450   -1.39961402184601
O           0.51358785213297   -1.75139897611218    0.39345018838102
H           0.06451876841334   -0.92736882685594    0.77730418768231
H           0.72678221629138    0.37919549160113   -1.63847039877156
O          -0.21747707525520    1.61705935990298   -1.92668279124407
H          -0.44395901030119    1.57748469124289   -2.85733232836869
O          -0.33407202969460    0.33964406597990    1.60198388070280
H           0.26277510126606    1.03944269697678    1.24614012506921
H           0.08174637410990    0.03316244743612    2.42439568923927
O           1.37155935360477    1.98080061766795    0.35133613045924
H           2.02766159755748    1.35873952130311    0.02208141256772
H           0.86363623236330    2.25716402381222   -0.42289274265382
O           1.19157105768052   -1.34491244037350    3.16051179120922
H           0.95699600437318   -2.03179876120405    3.78660502421464
H           1.30594577097914   -1.77585955995343    2.30440105873017
N          -2.27733826317428    0.71693593114711   -0.61874054251966
H          -2.06963390978185    0.72306400273459    0.37336240126024
H          -1.06272394380123    1.35774886749560   -1.41957031331615
H          -2.10393157825699   -0.22761501498028   -0.96015611710491
H          -3.25590666941695    0.93728564093976   -0.74587399417746
