    23
        -45.34338580  Gyration_radius:  2.61263945469 Dipole_moment: 4.712
 S           0.77577361637676   -0.84828124959722   -2.56543921044465
O          -0.37593475046124   -1.12253736684694   -3.35717514193324
O           1.21822743237213    0.50066258550926   -2.44020877446429
O           0.60379825928194   -1.48112010599957   -1.16461110431897
O           1.97685602997140   -1.70402673096605   -3.12045662230914
H           1.58263046688316   -2.48243616549735   -3.50732336695702
H          -0.30335657726384   -1.10792728083183   -0.80419664996288
O          -1.54277592000369   -0.51055229284994   -0.35050454452096
H          -2.28360698600617   -1.07175755704116   -0.58370576493455
O           0.18910963756224    1.72298630936549   -0.26164690171553
H           0.68740779456447    1.54149249028022   -1.07623557408554
H          -0.64338896266784    1.24755498632948   -0.37505509643605
O           1.53587038615267   -0.18651946283963    1.27311076988545
H           1.19783290645127    0.60920502424461    0.82511049157739
H           1.62782520132817   -0.84180910738221    0.57575870867462
O          -0.54669801154432    2.45311327803319    2.36004560638228
H          -0.30871093794766    2.44299068462635    1.42177318608882
H           0.28082839257431    2.54269628657680    2.83657364706105
N          -1.16050083956870   -0.36029530011069    2.15945480456125
H          -1.26372328495808    0.62395534769773    2.40919375827590
H          -1.62901852076795   -0.92953379609295    2.85083757636789
H          -1.46099589995793   -0.48517162639701    0.71299403124611
H          -0.15744944232862   -0.55268894016795    2.18170618193430
