    23
        -45.36968557  Gyration_radius:  2.29047753769 Dipole_moment: 7.925
 S          -0.82527134021769    0.63521943285274   -1.86538057868212
O          -0.75357811179629    1.58845186098699   -0.72781048908556
O          -1.10371258878298    1.25620868752113   -3.10961849664675
O           0.64802562193338    0.02930700613497   -1.95566658065297
O          -1.68123986047431   -0.49237884050616   -1.49669897815224
H          -1.73545104454366   -1.25498893937869   -0.20679796076389
H           0.72599889646303   -0.63758895753460   -1.25050658526379
O          -1.66602909766313   -1.77034347703915    0.66773867970466
H          -2.36931490187883   -2.42012003474121    0.64025897094684
O           1.83960163456453    2.05012039933508   -0.37057650428946
H           2.23370685627408    1.73659889016320   -1.18804217412823
H           0.87382261826214    2.05098622874426   -0.54224835369290
O           1.79755757007032    0.26048349981034    1.60105124575471
H           1.97972414614285    0.97826934400729    0.94679721491146
H           1.83275732117187   -0.56498257531696    1.09994530001806
O           0.92991581450967   -1.87208956683400   -0.02867829706476
H           0.01251157372540   -1.97821430414819    0.30222884320597
H           1.15341333943422   -2.67642010160291   -0.49999769442029
N          -0.79736079619548    0.61659441074580    1.63219660757831
H           0.25212092555282    0.47895609030923    1.79256024761487
H          -1.21228884992892    1.21419997021782    2.33746943014391
H          -0.86880190619357    1.07162099487385    0.64411343485562
H          -1.26610781040694   -0.29989002859399    1.57766272808641
