    23
        -45.36065504  Gyration_radius:  2.3467094006 Dipole_moment: 5.090
 S          -0.82853762698946   -0.51467670405084   -1.10471028573842
O          -0.88698589704474   -0.42762341083870    0.34051838021603
O          -2.05964609508537   -0.27550983184610   -1.77781255434727
O           0.24697734264289    0.48641980249297   -1.59615220006500
O          -0.25311082083293   -1.87412970554446   -1.49362479182859
H           0.63616778672156   -2.00883082085584   -1.00280339639216
H          -0.26928723925323    1.31731262658145   -1.90745859027208
O           1.88433436668087   -2.23568790295135   -0.17982825364876
H           2.07794058617856   -3.17557936920143   -0.16726574480687
O          -1.34822132337474    2.36120803666943   -2.12500953485811
H          -1.53477877781052    2.57152488840001   -1.17876089788598
H          -2.04890995117173    1.75434800913334   -2.39602147581210
O           1.05401048437607    1.38057470388878    1.05592646874680
H           1.60232328039420    1.48054465141471    0.27469460049656
H           0.43351781308644    0.66447771598132    0.84227147503426
O          -1.58658823708985    2.26593275935744    0.51859383922831
H          -1.72396942791112    1.31129650938834    0.58824973670875
H          -0.70801534797174    2.41621571831891    0.89871630076005
N           1.05933677319490   -1.51272676396526    2.21824775020658
H           1.49297466895081   -0.63028261047322    2.46660790957438
H           0.11475517901808   -1.29770684007814    1.90963348396630
H           1.64268548052677   -1.97364157451231    0.76384393845699
H           1.00302697272615   -2.08345988732286    3.05214385217794
