    23
        -45.36687154  Gyration_radius:  2.46975908492 Dipole_moment: 5.719
 S          -1.02344806842570    1.73450443484902   -1.22138362716428
O          -0.58727338574971    2.08312980925398    0.13591359517259
O          -1.70064858113280    2.78070632984931   -1.91480839188686
O           0.36404705048239    1.51298112732243   -2.03485130073883
O          -1.66186324245169    0.42609074042620   -1.22823228663929
H          -0.51811614711150   -0.65777922734661   -1.41075730385319
H           0.40590418416201    2.34837074225318   -2.48703822625888
O           0.32490739031860   -1.18861017610002   -1.40721125341009
H           0.93748979070175   -0.64337313810658   -1.90858494148543
O           0.72587310342622   -3.47488416042036    0.30088027338326
H           0.55166136238991   -4.38808811048086    0.07106972655653
H           0.54696092137036   -2.95180143019323   -0.49223164043380
O          -1.81061701387238    0.20668018485374    1.50330436735922
H          -2.32391887463775   -0.14133984396972    0.76507239728670
H          -1.43872091119248    1.04039335523644    1.13464700944114
O           1.70022811222178    1.55397001372609    1.29215346659641
H           0.89992523417659    1.82540014537805    0.77903252201647
H           1.76705534538728    2.18171075548645    2.01331135962289
N           0.58545491690310   -0.86514971139614    1.25106460139258
H           0.58085465842980   -1.01219218536758    0.20882355376256
H           1.21130483084461   -0.05509763022050    1.45390249474093
H          -0.40448497708378   -0.57648468274517    1.50739252789273
H           0.86742430084429   -1.73913733228499    1.68853106665005
