    23
        -45.35094056  Gyration_radius:  2.37614629424 Dipole_moment: 8.140
 S           0.14734923327370    1.87632754551242   -1.37912745139182
O          -0.35360941411412    0.53231202466846   -1.50536791857197
O          -0.48510907148380    2.88221697058504   -2.14581951215379
O           0.11959979530342    2.23855395498111    0.15018689760022
O           1.66754431026684    1.88256092092500   -1.66013130536063
H           2.06336040457662    1.28920399555114   -0.96973961136875
H          -0.47238096606270    1.61426221230947    0.64480132801870
O           0.72234570616357   -1.27957055015808    1.43405373025929
H           0.97796068253244   -1.99730787845727    2.01506501807924
O          -1.19414483301173    0.56426914863825    1.67581300337513
H          -0.53606612800333   -0.16809219678421    1.63971321298174
H          -1.18350832343505    0.91493560832027    2.56857997556778
O           2.46869435859332    0.52151199905214    0.41030338402793
H           1.85738743187968   -0.17094704852364    0.74024833467221
H           2.42862191695203    1.24291818852745    1.04254273675943
O          -2.65481713882158   -0.70740016420464   -0.49507093808239
H          -2.57163755946554   -0.28701422336859    0.36583334337043
H          -2.01912138317193   -0.23946871429185   -1.05515966909354
N          -0.20498068310204   -2.23854205308313   -0.76817379998396
H           0.09144287394135   -3.06482185214936   -1.27111103174874
H          -1.21605190163499   -2.26866925030043   -0.65287636373680
H           0.37605323679317   -1.71563203270021    0.56485734662827
H          -0.02893255797454   -1.42160660503976   -1.34942072985135
