    23
        -45.36797702  Gyration_radius:  2.55675328538 Dipole_moment: 3.995
 S          -0.07227540599032   -0.53534374502798   -2.39742143241236
O           1.08146017681010   -1.39910256743374   -2.31528478964767
O          -1.33997424255503   -1.15690541189768   -2.10897886625069
O           0.13051858864939    0.66777280709251   -1.55661355191287
O          -0.13359512984853   -0.00532458289171   -3.89857874517359
H           0.75012941063060   -0.16054373299816   -4.21982227657174
H          -1.07519430681747    0.94641982383521   -0.49681566509483
O          -1.75843599070499    1.02711182945762    0.21619862492893
H          -2.54648744507961    1.35407136749902   -0.21983735639556
O          -0.48655533218915    1.65980049255175    2.53475685666145
H          -1.07887567819811    1.29027740882260    3.19180153511005
H          -0.92408347816346    1.53160445850311    1.67036251251354
O          -1.23613810850555   -1.67774147681025    0.48326500415852
H          -1.35463776952808   -1.73753290535648   -0.48969563655719
H          -1.66233071554093   -0.83370710265450    0.70063847903784
O           1.97502547509751    0.61736751972432    2.47462784576119
H           2.58926743218057    1.34744649548676    2.38436464696109
H           1.08392835904634    1.02399779560081    2.58127647595853
N           1.24344399131277   -0.79772223619709    0.31656389132566
H           0.32505885040369   -1.28803184998835    0.54259166745577
H           1.85870196162525   -1.44765159838123   -0.16905453604388
H           0.96551621515558   -0.06873856478987   -0.39256461530990
H           1.66553312222011   -0.35752420414694    1.16821992148003
