    23
        -45.38321211  Gyration_radius:  2.25839565759 Dipole_moment: 3.079
 S          -0.03591843935639    1.16144840085572    1.50840685830883
O          -1.16592731164185    1.32355257322380    0.59822518771060
O          -0.16902026765758    0.01657587944674    2.37278607194656
O           1.22991631712079    1.19219072797708    0.77860789296536
O          -0.02296122097034    2.43577003458837    2.44595897301033
H           0.24366416721201    3.13323467386366    1.85630825754394
H           1.75322892560266   -0.33110405010689    0.17875657728933
O           1.78428503669840   -1.19790256939074   -0.27898565812190
H           1.23108274792934   -1.78755716636638    0.26115304470831
O          -0.24688317843414   -2.29388344437900    1.22118911442684
H          -0.33587472292475   -2.98665045480450    1.87746340684208
H          -0.22737824897323   -1.43948870922731    1.72633113287903
O          -1.88916165825260   -0.97441586645650   -0.55083375684190
H          -1.81065198228282   -0.11487694792400   -0.08473284723678
H          -1.49843768771549   -1.62478775640354    0.05721700583954
O           0.23425443210506    2.05157995237708   -1.50574681833582
H          -0.56275715508385    1.99594932833855   -0.94504276249171
H           0.93741308755051    1.90135184255326   -0.84676813597672
N           0.11250122320977   -0.50475236660035   -2.17698072089034
H          -0.79336158465598   -0.76961231287810   -1.67772980303374
H           0.89610410792612   -0.87476565750797   -1.55430503416652
H           0.15936480580870   -0.86328792761020   -3.12310955812075
H           0.17651862672349    0.55143181615944   -2.13816841832907
