    23
        -45.37131718  Gyration_radius:  2.2651844398 Dipole_moment: 7.938
 S          -0.78324927687732   -1.18442152015788    0.97042262971736
O           0.59285888718065   -1.64863034819266    0.67352961486149
O          -1.72336691157130   -2.24286294988173    1.08875041179357
O          -0.65727555876618   -0.43185945247337    2.35212685445744
O          -1.16253524752283   -0.13726375309500    0.01155814166466
H          -0.64445391171588    0.07914630404423   -1.57973810487075
H          -0.06839890251615    0.31847597208381    2.16688030947622
O          -0.02452304693142    0.04127188383414   -2.34163539267032
H          -0.03519050947350   -0.90729021382957   -2.55383373274682
O           0.83736608550195    1.79894884160766    1.59084647009161
H           0.00608090650642    2.15673277688505    1.18221877801457
H           1.00032044154525    2.32682975812561    2.37446789959316
O          -1.43494200606016    2.41304178946133    0.44062278747103
H          -1.53871929657168    2.80229589497428   -0.42979265515461
H          -1.52907798659105    1.43921862626161    0.31227175448924
O          -0.43043217236974   -2.58512631222444   -1.63636920681413
H          -1.31467257554641   -2.86078053850587   -1.38453524585759
H           0.02686996131955   -2.44232079220392   -0.79215838569874
N           1.81709847132707    0.23975258611599   -0.50115596706934
H           1.19994371121737    0.28845075896444   -1.37665340193084
H           2.79791583562198    0.10687421572616   -0.71981464302410
H           1.66913619744618    1.04588849060895    0.11639877818115
H           1.39924688529272   -0.61637201827599    0.03559231608827
