    23
        -45.35981212  Gyration_radius:  2.4191832795 Dipole_moment: 3.428
 S          -0.10406079851755    0.29786852895480   -1.72626535951895
O          -1.18249212429165   -0.28546470237047   -0.96449864898662
O          -0.28048381305397    1.64115987738036   -2.15643237315849
O           1.18840369128298    0.18974142779456   -0.88983785666784
O           0.16555927901691   -0.58751074406894   -2.96210554780146
H           0.28040437559326   -1.52344378434129   -2.64159971170970
H           1.05776042251251   -0.57888272911934   -0.23851629020147
O           0.43754141388224   -1.70175636578438    0.63304300018426
H          -0.45702761181811   -1.41618959651069    0.38808874522857
O           0.36310338229380   -2.91791788792811   -1.80951732050064
H           0.58002419434647   -2.71650621362467   -0.88252920742226
H          -0.50471064439535   -3.32946635556942   -1.80696213231291
O          -1.20618021036174    1.30016273769984    1.34022509921479
H          -1.41581652512121    0.77548234236819    0.55651488743461
H          -0.83051387138579    2.13217225528157    0.99975784735169
O          -0.18129442220990    3.40087139761138   -0.09470354054307
H          -0.75256299623222    4.13441998771948   -0.33129439498559
H          -0.10697524932613    2.84858681514158   -0.89265939928360
N           0.62125871847177   -0.30285502927324    2.80968471925098
H           1.49959590373268    0.17934801952407    2.94994326017902
H          -0.05784604931834    0.38182846528061    2.45986869201361
H           0.58921911113599   -1.28533740954864    1.55169422340268
H           0.29709379365580   -0.63631104674548    3.70810132877993
