    23
        -45.36002065  Gyration_radius:  2.28377959497 Dipole_moment: 6.127
 S           1.47461521456218   -0.33034265310807    0.98375516203211
O           0.49757007499983   -1.35455724621795    1.21822757269746
O           2.83528448469910   -0.75271263025086    0.95873009960039
O           1.12669631622220    0.42280034184437   -0.32469981693431
O           1.29185376248642    0.79627395051502    2.03209877585732
H           0.32702160540380    1.04085841614889    1.97596371507571
H           0.50011835988369   -0.15125045646533   -0.93429059598230
O          -1.21275829297289    1.43611208106807    1.61725592898529
H          -1.46513641176795    2.19770078990922    2.14320354714991
O          -0.39525594012710   -1.03026481129134   -1.68289520645388
H           0.20142344855417   -1.79646336636073   -1.63267504779472
H          -1.11353144157268   -1.18242748217152   -1.02051714054199
O           1.97275924948871   -2.35033550012594   -1.15012065806488
H           2.31084340187775   -1.99170502330825   -0.31727376690659
H           2.69500576171447   -2.28880559193629   -1.77973820582777
O          -2.02072350331817   -1.15481531119389    0.42568732176590
H          -2.20637626173132   -0.30106432201811    0.82957687820586
H          -1.20551619097926   -1.45282830680732    0.87114481190274
N          -1.16527307300402    2.11601840458142   -0.95222118024407
H          -1.21041783678505    1.73132976034111    0.65796180670676
H          -1.48798707483267    2.99048685071176   -1.34742903001205
H          -0.16315015268358    2.04747467240077   -1.09462457556780
H          -1.58706548014509    1.35851744375060   -1.47712038564729
