    23
        -45.35094065  Gyration_radius:  2.37618567985 Dipole_moment: 8.138
 S           0.06327865090938    1.85876160809275   -1.40858956985494
O          -0.41720699672723    0.50433714035342   -1.49763448522432
O          -0.61435642333877    2.84189736241194   -2.16621077161653
O           0.08326041239696    2.24317464263911    0.11554007734400
O           1.57214764766523    1.88770172192910   -1.74391316393140
H           2.00345835293175    1.31180949676419   -1.05984254421607
H          -0.47997878939366    1.61598294251301    0.63904688921468
O           0.79587192186245   -1.24355491995530    1.42421252137273
H           1.08548806309783   -1.94756117764229    2.00610600006498
O          -2.65646509959759   -0.76577731153271   -0.39009148356796
H          -2.05054576254033   -0.29324105987217   -0.97869696772107
H          -2.55208590329366   -0.33099010584183    0.46129997118242
O           2.47262886294541    0.57256319806090    0.31501370817706
H           2.44116995695672    1.30254123683937    0.93791897805231
H           1.88574234714724   -0.12569356475391    0.67589427627319
O          -1.14600545863070    0.56748165433699    1.70868461961495
H          -1.11020126902117    0.93072545074368    2.59576441743908
H          -0.47564568621056   -0.15288203953979    1.65880905896281
N          -0.18922537357977   -2.25348914474467   -0.72981615107800
H          -0.04747144332866   -1.44359191126704   -1.32982674719243
H           0.42790022390889   -1.69891089287059    0.57429620770205
H          -1.19501115067009   -2.29822634387270   -0.57832203621519
H           0.10325292653285   -3.08305797281959   -1.22964280480161
