    23
        -45.36963217  Gyration_radius:  2.27066019368 Dipole_moment: 5.883
 S           0.70339489755305    1.88718718251540   -0.55440571184358
O           0.74689463070490    2.14087783086000   -1.96327381915572
O           1.09031130037538    2.93324265798833    0.34202161762787
O          -0.90407530278702    1.66779603259426   -0.22627148077195
O           1.26582489885017    0.57642504189638   -0.19942721445109
H           0.56302250806013   -0.11780524075201   -1.54051844326285
H          -1.22832097483796    2.55083181525935   -0.37433090479156
O           0.09865319919445   -0.64683487521333   -2.22290948071913
H           0.06734628376530   -0.05739783080558   -2.98039045269785
O           1.49621982774982   -2.10712535289212   -0.04710514032427
H           1.76641702381483   -1.17303202231028   -0.03391526582297
H           1.17687235548345   -2.24933509535792   -0.94518717826452
O           0.46214086076650    0.83250586232227    2.27508284968919
H           0.91067497819875    0.85294409185199    1.40470722941105
H           0.25581685247989    1.75240731789835    2.45276962175118
O          -2.06091633946636   -0.76824497331107   -0.63663458255852
H          -1.40250212348376   -0.92397466016149   -1.34915064899830
H          -1.99002947208555    0.18641650386295   -0.48264477950507
N          -0.61842361673886   -1.48386179180855    1.44230293361002
H          -0.32893812475107   -0.58668025739838    1.89828039790196
H           0.24023578307338   -1.87126654151817    0.95750873575420
H          -0.99523653302244   -2.13655607200558    2.12050382539468
H          -1.31538292289492   -1.25851961350736    0.66298789203476
