    23
        -45.37098796  Gyration_radius:  2.43892700195 Dipole_moment: 7.089
 S           2.44895840436308   -0.16210242924774    0.14182251992443
O           1.67798673763010    0.86042601442822    0.85017107086420
O           3.85863237682826    0.03679180459876    0.09101505168537
O           2.20576913434833   -1.48275835010560    1.05310968219410
O           1.82332419354048   -0.48581447491343   -1.14038996740578
H           1.01807339190424    0.95449141542730   -1.57207943050344
H           2.99877833330752   -1.98518172550541    0.89584359716011
O          -1.91381946962564    0.70223947703605   -1.45520028953116
H          -2.38012049133261    1.04929212136620   -2.21662361228189
O          -0.51530698331823   -1.64952251670853   -0.83492466215447
H           0.39613227733965   -1.35685209740945   -1.06751830741854
H          -1.10664713347194   -1.00466026280608   -1.25563136271347
O           0.47111151169330    1.75678896388357   -1.43891235003474
H           0.73551575503853    2.05043337787737   -0.55826123077405
H          -1.02257750401269    1.15717668873718   -1.45366452402715
O          -2.70334285250419    0.83353289896861    1.12262805482772
H          -3.57662757410463    0.44461384148244    1.18695070476848
H          -2.48765569205638    0.87875288461816    0.16619623432592
N          -0.39857227273836   -0.52391059951796    1.52811919428571
H           0.44230011129539    0.10945176067977    1.34597609532921
H          -0.47869052423011   -1.13416001799500    0.65202938000577
H          -0.22188975441515   -1.08768936786082    2.35189471212169
H          -1.27133198548441    0.03866058297780    1.60744946933985
