    23
        -45.37652879  Gyration_radius:  2.26380993987 Dipole_moment: 2.722
 S           1.65745142229303   -0.30610814046704    0.91004397959358
O           2.41260055554416    0.31980270064848    1.95246472511548
O           0.53563915931487   -1.10140879960190    1.36235242476543
O           1.24561367807635    0.61737102283648   -0.15905210042164
O           2.66075434941346   -1.32655604213246    0.16658771914171
H           3.45274728047629   -1.28337811219040    0.69406663957771
H           0.47580330511335    1.46716593354999    1.18114732904350
O          -0.20108189216461    1.65419648889462    1.85376163509404
H           0.11366701671477    1.19939008172884    2.63893554351856
O          -1.55424951655022   -1.71456116320236   -0.07568002497145
H          -0.84026113237178   -1.66488929730829    0.60112804262878
H          -1.04935003274505   -1.72934750452649   -0.91077348689890
O          -0.59545794010490    1.49225753210058   -1.96095254190537
H          -0.51745376678505    0.71477133017806   -2.52450496330661
H           0.19360914778990    1.45654720583400   -1.39268845753335
O           0.44806386383223   -1.25770132854343   -1.85777154805451
H           1.09815887828072   -1.96187776172365   -1.88273848948430
H           0.81270075672811   -0.60294826619194   -1.22554258349939
N          -2.10344012264619    0.81856493556779    0.13259555813583
H          -3.06395089859060    1.12300121763648    0.24278887007571
H          -2.01240251950897   -0.25810783343354    0.07502361943611
H          -1.66469766955928    1.19811709452444   -0.74859981910541
H          -1.50446391249085    1.14569869581415    0.92740793905641
