    23
        -45.37758439  Gyration_radius:  2.31463284586 Dipole_moment: 5.948
 S          -0.01654220463483   -1.20264434225108   -1.28976415791579
O           0.42338022395778   -1.62228012321546    0.05749352964723
O          -1.19871153049959   -1.88515583249406   -1.72557645498363
O          -0.19926435065585    0.26236660993549   -1.28502031061810
O           1.15580930337889   -1.51208842385735   -2.26495677995896
H           1.96781503268549   -1.23417441620530   -1.77564386678755
H          -1.96150147482462    0.43825234678984   -0.98936328385920
O          -2.74839570737202    0.00251564658380   -0.61064294401299
H          -2.72274803697302   -0.85689029460445   -1.06123783524709
O           2.88787974956724   -0.73322685450869   -0.44750919565243
H           2.22281096340371   -1.21863294930324    0.06771222885045
H           2.71472311571540    0.20230325597240   -0.25677274122627
O          -0.11331113030427    1.89412957777607    2.03584231278911
H          -0.63190976697654    2.66938710114931    1.81251603052094
H           0.60205451358388    1.83775119961624    1.36427415462976
O           1.54542819583024    1.68611495892609   -0.07686773759236
H           0.86920479244952    1.13494344053903   -0.57020023464294
H           1.73553127758462    2.43629589456484   -0.64296487693639
N          -1.32247728320501   -0.46385698374572    1.56478659962476
H          -1.68845999976595   -0.98699962270002    2.35267970373785
H          -0.56630452180426   -1.02044671426003    1.04408513034523
H          -2.06242301906053   -0.27188802348696    0.82789523435482
H          -0.89258814204903    0.44422454876496    1.86923548492826
