    23
        -45.36850594  Gyration_radius:  2.55116093265 Dipole_moment: 2.420
 S           1.61326811676197    1.92426432480249   -0.04607642822597
O           0.68849643832233    2.16952266695062   -1.15073111629047
O           1.08206642569117    2.38686123160902    1.21979877480273
O           2.05932876405685    0.53798494177003   -0.01070720904305
O           2.91406079633084    2.78601973279934   -0.34446160486326
H           2.63217778787685    3.68284256020631   -0.18657336932057
H           1.48126441174916   -0.81810304107551   -0.73269222931232
O           0.97006230569521   -1.57065433633239   -1.12068226989560
H           1.50350396732639   -1.91187082175710   -1.83915456085551
O          -1.00741452346778   -2.40990615377504    0.78683645405729
H          -0.27422458600740   -2.40454806533048    0.15606160509297
H          -0.74349165982358   -1.81972770650355    1.50233941164646
O          -3.18008578419996   -1.21945310488873   -0.38204738607754
H          -4.03063399917106   -1.59125004291356   -0.14946770003396
H          -2.50309021971302   -1.77889173583953    0.05071425419557
O           0.14773399061612    0.03381352235377    1.83865524305823
H           0.99630116533246   -0.27099113489099    1.48532627112674
H           0.31852060760053    0.99444143700783    1.93605298843307
N          -0.96709924227547    0.27048484464085   -0.61847404888805
H          -0.49130717164393    1.15816795891276   -0.95463384150309
H          -1.98010625304059    0.18975285498499   -0.75703934229802
H          -0.49259500090973   -0.52098527726623   -1.08553836512092
H          -0.73673633710452    0.18222534454629    0.40249444922083
