    23
        -45.37211044  Gyration_radius:  2.3867279394 Dipole_moment: 3.038
 S          -2.12108411902128   -0.19328289362185   -0.41694424252055
O          -2.31365745872090    1.06310515509923   -1.08893764013270
O          -1.04167479321839   -0.97977610063110   -1.02390172321153
O          -1.94564898775064   -0.06333252827483    1.02481364985973
O          -3.44098955206795   -1.05934632026432   -0.63959242500226
H          -4.15110677699253   -0.42303340770631   -0.63526479438195
H          -0.82189803690347   -1.36515618745529    1.56530658962746
O          -0.08166609267182   -1.92414302475167    1.26382256687757
H          -0.24859770978531   -1.94650181771263    0.30562426159833
O           1.89848792072080   -0.25814873304519    1.55515537570673
H           2.36322121318347   -0.45968928131370    2.36809149212534
H           1.17746634784121   -0.94883074811186    1.46350966918229
O           2.86252786932056   -0.03040689804494   -0.96747044354471
H           2.90338515366181   -0.93927423399735   -1.27100094549978
H           2.64533793398268   -0.07178514952057   -0.01260110582355
O           0.02763542106731    1.73028925412821    1.04713861066125
H          -0.79859531705513    1.21492549135064    1.15375374126543
H           0.73552205562406    1.17481044050762    1.41843744352530
N           0.48536092491817    1.11268339838938   -1.45600343330335
H           1.48535047229203    0.80638900763451   -1.47684921479514
H           0.22921993426310    1.74599102168220   -2.20534399852721
H          -0.13543809518260    0.25942599812559   -1.47240232503549
H           0.28684170249558    1.55508755753754   -0.49934112865632
