    23
        -45.37876638  Gyration_radius:  2.27415344525 Dipole_moment: 6.346
 S           0.06962905557753   -1.77012437948543    0.54050836084211
O           0.59405615341911   -2.16982283682173   -0.76131074371926
O           0.97587891782763   -0.95240378977821    1.30343326357736
O          -1.25617620562035   -1.16678045116275    0.39368188451296
O          -0.14342007147503   -3.10670603542347    1.35773356587864
H          -0.61749187341030   -3.66162704669482    0.74642529146990
H          -1.47796182124609   -0.01045881870602   -0.72015018380306
O          -1.53424575662890    0.70823718056758   -1.40047119273499
H          -2.44689280673192    0.72644400369156   -1.69204350899402
O          -1.03323572843120    0.60859290142152    2.40769447046629
H          -0.17017535001120    0.30213382535924    2.70341008040910
H          -1.30144758767172   -0.05251667625450    1.74586491282722
O           1.96721413996614    1.26294783393492    0.15496637423596
H           1.20677094414941    1.87135290899781    0.35135523038365
H           1.81420738959491    0.48722325503431    0.72869781357933
O          -0.36080835836264    2.43787220971601    0.53287688684358
H          -0.87323667567023    2.06599146351665   -0.19791375130367
H          -0.66151440994539    1.94874823308422    1.32837726868780
N           1.05946727445196    0.09929086416844   -1.94452400426276
H           0.95119262000858   -0.88966472996719   -1.57013487345494
H           1.58213053907679    0.12147466307729   -2.81285290996229
H           0.10547482098031    0.47645323123375   -2.05739176952390
H           1.55058478017097    0.66334217050335   -1.13823247596251
