    23
        -45.35057510  Gyration_radius:  2.48167582627 Dipole_moment: 3.189
 S           1.41554674327533   -1.23749920617234   -1.25407602663656
O           1.40515310181928    0.11152131777224   -1.74334499743614
O           1.83985657859013   -1.43113549551071    0.08972508750416
O           0.05528894420977   -1.89887338344386   -1.51060702529139
O           2.34043361170481   -2.08215541758338   -2.19988205418569
H           2.13792904120262   -1.79766093502513   -3.08840874054961
H          -0.64289963971459   -1.52025965604255   -0.83645821532214
O          -0.36702577780632    1.48645409660779   -0.22714363793229
H           0.32544904517190    1.18310617037921   -0.83829476901070
O           0.28312805444803   -1.14394558915398    2.36469410807157
H           0.96107935886909   -1.36915676560429    1.71071729565108
H          -0.55736868083120   -1.25518410546866    1.90856345673110
O          -2.90991681625903    1.06707618097430   -1.37314643387147
H          -2.07597794160602    1.47317584104840   -1.09146376787068
H          -3.45687270643758    1.77320451518899   -1.71827230015264
O          -1.52222299028547   -0.82101154926790    0.10476877841172
H          -1.09296045415341    0.08781264917311    0.10413128627179
H          -2.36251583307835   -0.66526944639471   -0.34790104172341
N           0.89817914875520    1.65569281245366    2.09547784725853
H           0.69694675395351    0.69930831259207    2.39855741311180
H           0.63070001411137    2.28340252462345    2.84276841820362
H           1.90023264221486    1.72547451385677    1.97087390973523
H           0.09783777180529    1.67592262498841    0.63872141901944
