    23
        -45.35667464  Gyration_radius:  2.36061057793 Dipole_moment: 5.241
 S           1.45686184999068   -1.41892018605703   -1.03492830829974
O           1.45636307356575   -0.03897419212818   -1.46321012279491
O           1.51332706432283   -2.40137764043422   -2.05400371839537
O           2.55210707565153   -1.64167894886900    0.01986690267531
O           0.17707459153268   -1.63313206261001   -0.15422019788687
H          -0.65123067332376   -1.28881096734144   -0.61785703822626
H           2.52748763704113   -0.80887765274499    0.57794987869418
O          -1.95290312814216   -0.62618687951488   -1.17956988552209
H          -2.04238972030587   -0.86477634217486   -2.10373129362258
O           2.20412986032665    0.70207909108998    0.99806411350975
H           1.34422176682832    0.90289588988374    1.42202845767237
H           2.07099434115726    0.89006827323142    0.05703806938900
O          -0.28358359494531    1.33891332809102    1.91985457906797
H          -0.33121466713108    1.66270219170640    2.82071413085630
H          -0.86501043179364    0.54317869906620    1.88056054726282
O          -1.78183661736637   -0.86822869509831    1.70103639384636
H          -2.28457639578297   -0.77421770904947    0.88332897367385
H          -1.08821880398438   -1.50640796386878    1.49895440233850
N          -0.79846227551191    1.69368744770572   -1.04069738295098
H          -1.01285229280625    2.54352363580523   -1.54516249180412
H          -1.62054900355496    0.33775557937989   -1.15420591885177
H           0.09416451719995    1.33313967073351   -1.37331876048409
H          -0.68390415298144    1.92364544320589   -0.05849132017974
