    23
        -45.38497747  Gyration_radius:  2.25786298009 Dipole_moment: 2.536
 S          -1.74574131849482   -0.34804243555158    0.56828777699639
O          -1.45709649134400    1.04689922123057    0.30799258496198
O          -0.70561349461029   -0.98966511237735    1.37010606154554
O          -3.05794940345127   -0.36571045614275    1.45503614373210
O          -2.04956994223982   -1.11553225267760   -0.62459453175507
H           1.08771593955611   -1.61011695362633   -0.94017930118708
H          -3.29322458252817   -1.28730390608154    1.43875486579308
O           1.46506575441808   -1.61152719652717   -0.04419037957582
H           0.68728145927193   -1.56068592297819    0.55112542162516
O          -0.05844872053289   -1.08577770877596   -2.27383870210078
H          -0.30970528496381   -1.55293987579469   -3.07219732919877
H          -0.85454999792857   -1.11398392777967   -1.67913078192902
O           0.34085717773609    1.25256216702539    2.26364412083742
H           0.05324535458676    0.31788638659941    2.23486058146358
H          -0.36202958354943    1.68618270228179    1.75533305599155
O           0.33276522310889    1.54820959036921   -1.60412309595910
H           0.26520058087604    0.70748284971360   -2.08867845856250
H          -0.42923461680384    1.53207734195235   -0.98856492648888
N           2.05781704664309    0.92686498017700    0.27704720922675
H           3.00619239097680    1.28185739165815    0.30258825106615
H           1.49372500531405    1.31525361270396   -0.53978409704156
H           2.01787383454368   -0.13277656458600    0.17056276443177
H           1.51542368940040    1.15878603917752    1.15994275612557
