    23
        -45.37859039  Gyration_radius:  2.3349092253 Dipole_moment: 3.211
 S           1.68095435254112   -0.85917959916626   -0.47179912967675
O           1.56228600746836    0.31201255449851   -1.32703781982201
O           2.04015502559172   -0.55453603463117    0.89497659073534
O           0.48698407738849   -1.70297270929538   -0.55621083637068
O           2.87597760083749   -1.71934807575297   -1.06134271347238
H           2.69586775240143   -1.76946402416971   -1.99547065501544
H           1.28354068508989    1.73311330884182   -0.22149415630733
O           1.19325128202392    1.92933606191127    0.72825300610269
H           1.70130956145207    1.19049695007004    1.11328802172602
O          -0.31700064595327   -1.40465383565719    1.91066786157231
H          -0.17943268282070   -1.69816110931751    0.98167260882850
H           0.59067872874108   -1.24982476307077    2.20373162147297
O          -0.88055152867032   -0.25607835485620   -2.28022828101824
H          -0.09632779880903    0.30973071482027   -2.32341014018571
H          -0.56630385420177   -0.98542151154539   -1.70933732932590
O          -2.70276471154259    0.84686802171370   -0.75695664716355
H          -2.04326983489407    0.49227855215683   -1.41492974203343
H          -3.44208698110232    0.23734964058708   -0.77875616160759
N          -1.19379087578310    1.04177338336114    1.42651982767671
H          -0.93441811565621    0.04445107286369    1.69952399646540
H          -1.62970504497943    1.53152779696677    2.20039010206887
H          -0.28361726930416    1.52126575425074    1.14430881498599
H          -1.84173573982995    1.00943619542628    0.59364115036547
