    23
        -45.34744055  Gyration_radius:  2.44074294826 Dipole_moment: 4.545
 S           0.01389062561515    2.24013439847571    0.01815962732928
O           1.02840928282913    1.51299369228287   -0.65790549250238
O           0.36260464218563    3.06650235986436    1.12885032759028
O          -0.67576792734948    3.18840293223051   -1.05396313700708
O          -1.14782361767065    1.32629799186655    0.43425526491796
H          -1.31905342781874    0.56347362928226   -0.23923292162276
H          -0.99473402898360    3.95432518966360   -0.58108947001399
O          -1.03684929940895   -2.61610130100927    0.23127243064735
H          -0.88881733794843   -3.37300078781393   -0.33883591735423
O           1.06329746908787   -0.79718947262522   -2.14351433966099
H           1.25836139922878    0.07468028363474   -1.77142129396588
H           0.10310345117275   -0.83151488866663   -2.18731733007918
O          -1.70337463784433   -0.56198983952315   -1.14400798267385
H          -1.45595103444601   -1.38452626125612   -0.59308163768887
H          -2.66106595505325   -0.56017936601653   -1.20399753178300
O           0.88407615499570    0.67739823378748    2.33795469102584
H           0.90501295878623    1.60625737963918    2.07670304641805
H          -0.00666786901155    0.50531637626640    2.65151643757675
N           1.35641407419972   -1.71189382700556    0.64630082064313
H           1.32589150301446   -0.85934998262746    1.20098324685066
H          -0.10259339540399   -2.29834989614779    0.50496810976588
H           1.57380625140904   -1.44240598032341   -0.31217327148096
H           2.11783068846038   -2.27928085397982    0.99557631308498
