    23
        -45.37564595  Gyration_radius:  2.39961894163 Dipole_moment: 4.106
 S           0.93543687617251   -0.18374330599632    1.42465653040030
O           0.86482130738573   -1.21360277350349    0.37909937829122
O           0.73730268684074    1.14277086580066    0.88563502954391
O           0.08793300246577   -0.51767946910288    2.54842417550402
O           2.42926319073148   -0.21774858555284    1.96572850100114
H           2.43556521289984   -0.92565014384181    2.60290234468262
H          -1.52918254417432   -0.77250530685233    2.29679389309332
O          -2.43250985903913   -1.05011791145492    2.01342154196361
H          -2.68032932654344   -1.76897849678657    2.59692964171287
O          -1.16649787765978    1.61245580830314   -0.97553301338428
H          -0.53151160910804    1.68059066446335   -0.23719668780523
H          -0.61341167240442    1.57057157709350   -1.78888014966511
O           0.56181374418707    1.19247001212578   -2.97518897814939
H           1.28768695029273    0.87560916878751   -2.38489658907060
H           0.92933891315680    1.92010887578375   -3.47862055522954
O           2.35301340853782    0.46246990642663   -1.13841418931864
H           2.09855052305119   -0.42836550752631   -0.86031891783924
H           2.01342933205582    1.01469046502528   -0.41534853369940
N          -1.57906289266801   -0.90191053624184   -0.51338113075064
H          -2.13341568709234   -1.02185262947338    0.36296368761481
H          -0.58279879353507   -1.15150515235587   -0.26226388546426
H          -1.93274002739892   -1.46996760502245   -1.27525243959885
H          -1.55269482819679    0.15189007986569   -0.77125966379778
