    23
        -45.35516088  Gyration_radius:  2.59020474132 Dipole_moment: 4.222
 S           0.37038339752731   -1.55080058131664   -0.84640829081855
O          -0.13663482341831   -0.31759510465833   -1.36208821684283
O           0.18860000988311   -2.73088965420420   -1.62947692170718
O           1.88313856853567   -1.34459788502165   -0.53934021109459
O          -0.23717713953115   -1.82499568200205    0.54667625739354
H          -0.32966159160766   -0.94525559987949    1.08630289732545
H           2.21231399717556   -2.23701217265581   -0.28303030769950
O          -0.52724976045565    0.33096450763397    1.80571853183805
H          -1.01922522945844    0.18044748141932    2.61517228307700
O          -0.48505949020443    3.79371695579610   -0.43454405179452
H          -0.23978932876827    4.26928981268411   -1.22908325046429
H           0.23324916951901    3.14415781211495   -0.27822496633967
O           1.22457419668662    1.71743384955764   -0.06627830612605
H           1.02763549306744    1.39802896345604    0.81986243545760
H           0.86204064970277    1.04769564816699   -0.66658065726018
O           1.94110573896174   -3.90367570724442   -0.00769274794817
H           1.29032305767149   -3.86443477550749   -0.73073784404100
H           1.44480882472628   -4.09726298082861    0.79139148713597
N          -2.04016866667116    1.42601079144942    0.04563742701191
H          -3.05100139729191    1.40171382640175    0.05499940624566
H          -1.17218208387641    0.82365728256676    1.14746169297104
H          -1.70431728509931    0.89238327586494   -0.75125472919927
H          -1.73570629706871    2.39101992619873   -0.08848192713723
