    23
        -45.36872783  Gyration_radius:  2.41317134649 Dipole_moment: 2.829
 S           1.53286865726912   -1.18762234338010   -1.36063035225203
O           0.97389485596707   -1.62944419255857   -0.07631063714510
O           2.58017343894450   -2.01466918349578   -1.86092820431410
O           0.32160949548399   -1.29059998095823   -2.41068757141380
O           1.82186313954920    0.24694356250036   -1.30812125427601
H           0.29600319523160    0.87163165691470   -1.36629972516703
H           0.42313507010050   -2.15923351614923   -2.78694281007726
O          -0.62570036417072    1.21609682605596   -1.30967122776757
H          -0.88446910028727    1.40694414374586   -2.21227649739008
O          -1.64980542649118   -1.08975415341892   -0.12716558625905
H          -0.76142971961291   -1.48806910144023   -0.07955411995774
H          -1.52113523604546   -0.29862364026146   -0.67535090503742
O          -2.15697113290087    0.01637517616302    2.21617024686517
H          -3.10313700760819    0.02651684024462    2.36283797226700
H          -2.00996167106230   -0.51186277603836    1.39027349941032
O          -0.62455550762256    1.99386374780503    1.35099900938734
H          -1.26906619391881    1.37630749767195    1.77117816600097
H          -0.79660869917477    1.94735009558461    0.39604263505451
N           1.50890640775510    0.52392977510744    1.25909110835412
H           0.64739947732000    1.17119877351961    1.41177926898296
H           1.93574124498320    0.77128928040343    0.34281009518808
H           2.16916827126852    0.55999829218542    2.02770000359414
H           1.19207678503252   -0.45856678019760    1.04505687595216
