    23
        -45.37826488  Gyration_radius:  2.32638164648 Dipole_moment: 6.181
 S           0.25625778830925   -0.06427246782407   -1.74454757595354
O          -0.10415379605937   -1.29125690732838   -1.00220238429735
O          -0.75061125404706    0.31856322294923   -2.69742182419862
O           0.52783377536103    1.00814932861465   -0.78211679981049
O           1.58372111615670   -0.36731499687265   -2.50315127969471
H           2.15435076799266   -0.81418287455437   -1.83664968585482
H          -1.37077082117704    2.33757811682921   -0.72963787658156
O          -2.12223353039502    1.80478770285450   -1.00969717462940
H          -1.77813092527540    1.32459940935476   -1.79759577930596
O           2.46267431150358   -1.59704913065271   -0.33439418029076
H           2.49364211452269   -0.96001555988893    0.39505391885052
H           1.52617112959662   -1.84488125948087   -0.41320063644539
O           1.74251980639483    0.49727873010917    1.40065496420740
H           1.27263781192710    0.71195320844009    0.54010523306687
H           2.24733442944065    1.28190117734740    1.62121141827194
O          -0.49424350486750   -0.04039247267540    2.76252492705816
H           0.35612702246304    0.20275588956115    2.32656434323354
H          -0.31066606138325   -0.82752027416795    3.27816260539052
N          -1.96479956487998   -0.34374221221694    0.52518743669994
H          -2.81948187139807   -0.88263999970305    0.61633359058751
H          -2.14544978662456    0.57438406533681    0.01843292902987
H          -1.51262191726311   -0.17703833615547    1.45658671047570
H          -1.25010702031073   -0.85164436986629   -0.09020286980302
