    23
        -45.37796974  Gyration_radius:  2.33944603975 Dipole_moment: 4.764
 S          -0.14959501318625   -1.00563280062338   -0.79665625088884
O           0.69013051931222   -0.00605242920423   -1.45714095075265
O          -1.50639867242277   -0.50586595022845   -0.59158961161221
O          -0.23396721358956   -2.25674913529965   -1.73113440400042
O           0.45707808934308   -1.46296280102714    0.44246609740897
H          -0.14906178881802   -0.85823188068201    1.83609171519279
H          -0.86446586924720   -1.99279001147265   -2.43021642021796
O          -0.30239518419035   -0.39713558157907    2.69851663517013
H          -0.07613525812101   -1.03386826529443    3.37829884553291
O          -2.27723399343407   -1.14570855340520   -3.00580252631190
H          -2.18589267241428   -0.72750738375848   -2.12316898298617
H          -3.10159228130067   -1.63677508962730   -2.98919382961629
O           2.61553630502968    0.20089167657316    0.29384142416919
H           2.06008426069897    0.20073184935739   -0.52149727382161
H           2.42475681864924   -0.66968761897773    0.66439486722123
O          -0.65263778230274    2.00491088387563   -0.42078637425906
H          -0.05221706653640    1.56680133926252   -1.05571005706604
H          -1.32748351397608    1.31374479895156   -0.30027285629461
N           0.93694873544505    1.71083530376189    1.64888769680969
H           1.74085777504281    1.19774757431402    1.16668592791022
H           0.25333792037661    1.97370733057386    0.86842141403345
H           0.45108746751830    1.00789046889815    2.25484278068082
H           1.24925843813280    2.52170626562023    2.17072211372416
