    23
        -45.36420729  Gyration_radius:  2.70113341338 Dipole_moment: 5.319
 S           0.37459429162518   -0.45879667979808   -2.61203347774703
O          -0.03953575336035    0.92056633361837   -2.34331659908715
O           1.72174571060545   -0.74631067779014   -2.18478453255577
O          -0.60638742944817   -1.40294793763808   -2.08868331897781
O           0.34825262812830   -0.60564583968978   -4.19296482912265
H          -0.48742954785396   -0.20698945412340   -4.41534560306554
H          -1.05471334217970   -1.46938767829630   -0.58807375160944
O          -1.40993622946947   -1.32439904269213    0.33863657177854
H          -2.36264689691575   -1.30486142372295    0.22737956780088
O           2.62993359412275   -0.08748565394282    0.17017783357817
H           2.42153604895641   -0.29917306734237   -0.77253486022274
H           2.96075437701968   -0.90384982540007    0.54769511520837
O          -0.75869825877372    2.12453028853043    2.50999449137878
H          -1.41352667788070    2.64396711009490    2.97660581368158
H          -0.85309091362904    1.20463648197492    2.82169964288399
O          -0.93594809078007   -0.58112590220359    2.98449679145498
H          -1.12788154675333   -1.00079893102501    2.13041868116524
H          -0.19658483014187   -1.05878767021999    3.36348114915035
N           0.15582646583323    0.93602306157415    0.23841664628021
H          -0.10438136659355    1.70936045357341    0.86506753775381
H           1.14393156130008    0.63725173669167    0.40310366861161
H          -0.47276279970066    0.13066140856617    0.41952699343133
H           0.06694900586899    1.14356290924136   -0.79896352177201
