    23
        -45.36148817  Gyration_radius:  2.31055019984 Dipole_moment: 3.437
 S           0.07227523186638    1.54926550355820   -1.36545176504666
O          -0.79111813955294    0.45038499525462   -0.97343249391603
O          -0.52889854229356    2.82696746315066   -1.42707630723775
O           1.26563047891784    1.61431464853435   -0.38824157385962
O           0.72487119637430    1.17914175720028   -2.72011929740718
H           0.95361291071541    0.21166113702366   -2.65802627193719
H           1.57260683875112    0.70552597187342   -0.04990402545772
O           0.10629217565002   -0.64773716513781    2.23541247027901
H          -0.22909040794337    0.26422108322460    2.20467359159675
O           0.98451796617413   -1.29791971017658   -1.97592355544685
H           1.57424176502287   -1.33966718268536   -1.20814792386261
H           0.10918755240548   -1.11114277846218   -1.60590410623078
O          -1.04932595236011    1.74232731237364    1.43246267941586
H          -0.84213251274004    2.65845660335051    1.23878447063837
H          -1.17943935014496    1.31605010470826    0.57511926426827
O           1.98821376901799   -0.65210600228962    0.52591808035317
H           1.25097757818506   -0.71906063084909    1.23760307577584
H           2.81118850392423   -0.55725145179012    1.00962008266533
N          -1.85420022591947   -1.73914186225883    0.71913580435152
H          -2.77999141007031   -1.61987012082816    1.11063988349852
H          -0.60793821006254   -1.18162902779172    1.81171041568674
H          -1.82831090713560   -2.63724235072659    0.25309957558655
H          -1.72317031887056   -1.01554828730123    0.01804795623399
