    23
        -45.35014205  Gyration_radius:  2.49457940758 Dipole_moment: 5.118
 S           0.19997436131625   -1.35684957890758    2.19962580466182
O          -0.83677255394677   -1.11294781065627    1.24158129810033
O          -0.16232319986350   -1.66303274063661    3.53509387304782
O           1.04580731044327   -2.58036433626813    1.63737367027487
O           1.21094731904667   -0.21158219216970    2.17859674075526
H           1.48487310053165    0.00391912174753    1.19798084684930
H           1.34251737527299   -3.05879190286760    2.40679332331183
O           1.92054077945340    0.33178339984964   -0.15919477702209
H           2.79636077377838    0.71722540817563   -0.09875214481400
O          -2.07189110779006    1.19723472398961    0.25715254647035
H          -2.19245105294115    0.92804420140504   -0.66965856621713
H          -1.79643505973462    0.39555788952577    0.72145353332504
O           0.01954723368463   -1.42685637290458   -1.31327551791328
H          -0.37662228207037   -1.47429900621486   -0.42678022642203
H           0.87798850992247   -1.01004719978120   -1.17546059814700
O          -1.67425846821717    0.36228224631574   -2.38372765208903
H          -2.33304569033160   -0.11168273057637   -2.89220185659584
H          -1.03515128291918   -0.31797696467832   -2.06850054674253
N           0.29613595732201    2.16043810966442   -0.86315842081271
H           1.26103552916655    1.11381989751368   -0.46059034759380
H          -0.01673815113754    1.98300180064897   -1.81152547714937
H          -0.52582289629346    1.99875421506554   -0.26578707633367
H           0.56578349530472    3.13236984173163   -0.78703842891305
