    23
        -45.35952709  Gyration_radius:  2.28396074056 Dipole_moment: 4.855
 S           0.59447043394490   -1.54674105954056   -0.34495129298376
O           1.10236608328035   -1.48486344394784   -1.68642755824234
O           0.88401672034825   -2.70586299709794    0.42917891329035
O           1.07917349102042   -0.28733662386478    0.41226271765963
O          -0.94788148327165   -1.39011458571103   -0.38137261939602
H          -1.20907511118564   -0.42914954592053   -0.52898829185828
H           1.62433746936980    0.33041350277649   -0.19295358766805
O          -1.58663167990428    1.08112352811612   -0.57372235026921
H          -2.53970879588327    1.18670107653817   -0.59885052980871
O          -0.62038957973133   -1.61554041653206    2.43288432831804
H           0.04613937478060   -2.02160544491650    1.85627299269757
H          -1.41388767136440   -2.14095528745171    2.30970101727668
O           2.37422774952419    1.17365241732569   -1.21423576207898
H           1.63911005052058    1.27443357399136   -1.87544033618927
H           3.00557495899065    0.57530191698466   -1.62205343995057
O           0.24981660647030    0.86969545291200   -2.71530075880757
H           0.43563077285721   -0.07828330596543   -2.58781634849225
H          -0.48136266146368    1.09181051025045   -2.12287257652184
N          -0.85491127955693    1.25578362886479    1.90416210267628
H          -1.39250850973358    1.72095736654188    2.62542994318304
H           0.08824059002067    1.62374110115830    1.92522130879111
H          -0.78011719659308    0.26556679848650    2.15033243994165
H          -1.29663031243191    1.25127183698800    0.39953969843129
