    23
        -45.34599834  Gyration_radius:  2.39921368438 Dipole_moment: 6.232
 S           0.48213740284981    1.90253308081003   -1.56492063708068
O          -0.00903022827793    3.17991946876136   -1.94746303825231
O           1.75590649597646    1.46996159100600   -2.01796251938261
O           0.42323896701294    1.73062158775894   -0.02755182178664
O          -0.59127760420271    0.82958073876079   -2.06288429440744
H          -1.42209293652391    1.29923323303941   -2.12090474353800
H          -0.52358177314416    1.43691993715119    0.23392685277730
O          -1.06469941609305   -1.59172568279355   -0.39214874879766
H          -1.42291075227589   -1.80751139481128   -1.25350644038240
O          -1.84767906714899    0.77628240581701    0.49865655188332
H          -1.88271866545861    0.59757644724820    1.44583587968789
H          -1.65309698586931   -0.10893837892984    0.08959235936290
O          -0.96517670620644   -1.17613774625911    2.36337499391837
H          -0.86267968253778   -1.89670218477154    2.98658635242489
H          -1.01105381783223   -1.57273149397429    1.47892099945087
O           1.58133902327782   -0.00854401626807    1.95950083674420
H           1.43361171045995    0.82325763583701    1.49772061924845
H           0.70466586500916   -0.32477046643806    2.22788221776789
N           1.46827635377079   -1.11505244008103   -0.71349798476535
H           1.79345390744775   -0.88394452666476    0.22658493854199
H           1.61444296173955   -0.28783401580031   -1.28685277417100
H           2.06278800590579   -1.85100987400985   -1.07359021392438
H          -0.06386303787936   -1.42098389538692   -0.54729939532030
