    23
        -45.34456715  Gyration_radius:  2.55419596207 Dipole_moment: 1.427
 S           2.36384270651073    0.44167475240599   -0.79330740495505
O           2.30316217972242   -0.64113147844015   -1.73388064825076
O           2.75741633302522    0.14695919686620    0.53742026080313
O           3.36433417437574    1.51908783251409   -1.35794054327956
O           1.02273945514328    1.19836820927210   -0.82401704760329
H           0.32978264163555    0.57327689681291   -1.25033811000021
H           3.25480120204139    1.54733563131609   -2.30655995938687
O          -1.03139117629015   -1.94377693959959    0.25292137745181
H          -0.71544913311500   -2.84030585791401    0.36828601002018
O          -0.36646125134450   -0.59697320517439   -1.91078056694207
H           0.47479776791596   -0.97025835249778   -2.21243134333801
H          -0.65512799399283   -1.16854130789688   -1.15068306592142
O          -1.72798704850214    1.73692979224284    1.63976741192367
H          -2.16210110203308    1.25131343990297    0.91112393475176
H          -2.43195348079215    2.15408597041980    2.13796048191454
O          -2.82134898726385    0.16061376123320   -0.31861718737682
H          -2.39045004832792    0.32685420143340   -1.16125442952510
H          -2.47512271954337   -0.68919337290634   -0.01305164990713
N           0.23733547470758   -0.40766663705531    1.91098030665372
H          -0.29686639084475    0.46075264526213    1.90652283062574
H           1.16190943192470   -0.19839696294056    1.54268515528035
H           0.34659537191613   -0.69217383925477    2.87640977299961
H          -0.54245740683674   -1.36883437599053    0.94878441406851
