    23
        -45.35637916  Gyration_radius:  2.39893505654 Dipole_moment: 7.591
 S          -1.82677250235281   -0.40387028924174    1.53679106667832
O          -0.48088700694209   -0.05414836707178    1.93773241147844
O          -2.82030420715275   -0.39089984492530    2.54082159640614
O          -2.25152123338715    0.55604977435398    0.39021959286407
O          -1.75709000541245   -1.77977235265109    0.81447400144357
H          -0.78077793279868   -2.06743398966909    0.81087549402973
H          -1.89508716158902    0.20287780784096   -0.48149330264913
O           1.33260312513221   -0.82884962667546   -1.45898228072112
H           1.87317913005002   -1.12175801911823   -2.19373856630892
O           0.75747707043907   -2.12682093911640    0.85070676925865
H           1.07261853896458   -1.75510256516311    0.00260560241104
H           0.75927997342055   -1.38589879338927    1.47807577040718
O          -0.03317087811553    2.37234254400591    0.85053053941073
H          -0.91696676345454    2.53697382859290    0.51350209738677
H          -0.11127588034314    1.56083014467623    1.38297743872290
O          -1.32055036677156   -0.57325475310922   -1.72439354900766
H          -0.34022299691021   -0.64336816378793   -1.67547173152646
H          -1.66806838455059   -1.45762452847144   -1.57872332861653
N           2.13435757893123    1.55719370699601   -0.79526124467574
H           1.36647533554124    1.92339463976617   -0.22234891188990
H           2.27702331400106    2.20572908723504   -1.55970160032506
H           2.96673549236491    1.57082454533101   -0.21884050513915
H           1.66294577095186    0.10258614358606   -1.20035735961871
