    23
        -45.35728237  Gyration_radius:  2.42834510175 Dipole_moment: 4.169
 S          -0.62847416563357   -0.48328774206689   -1.25637739558406
O          -0.79612444634764    0.87714975034596   -1.67866479833912
O           0.70336664468054   -0.95689388538779   -1.05228398622423
O          -1.44611972183819   -0.66739439990294    0.03793775909605
O          -1.33353220984473   -1.42551342455937   -2.26832090488899
H          -2.22531413789348   -1.02530897204307   -2.41000896138701
H          -0.90223879481011   -1.28786340640791    0.68015309839806
O           1.18253201011529    0.10318360587144    2.47747208962105
H           0.80081772916477    0.42674237490144    3.29446573521951
O           3.07324424859063    0.15549018325388   -0.01398401109338
H           2.37959693631644   -0.28182430129458   -0.52578005868585
H           2.93976676718916   -0.11315793617430    0.89931585064512
O          -3.36667271445329    0.19947697656606   -2.07550503021013
H          -2.63080247306622    0.83163901098503   -2.03188021247705
H          -3.69692385495059    0.10462715256183   -1.17801882435655
O           0.11942651459010   -2.04213142343921    1.40813838298387
H           0.71094658325713   -2.21072334950807    0.66429032947773
H           0.54885897376579   -1.30562988368931    1.92197217060784
N           0.84970344380244    1.92618175370689    0.56712336993160
H           0.18454748467865    1.65986047973321   -0.15226079715291
H           1.77577507017860    1.78736280880168    0.16519842537575
H           0.73659505689612    2.91754249687308    0.74133987384199
H           1.02102506560625    0.81047214086671    1.78567790520004
