    23
        -45.37549187  Gyration_radius:  2.39544475091 Dipole_moment: 1.107
 S           1.45707621525343   -0.04380149902923    1.17343192214913
O           2.24513694751939   -0.32912548304523   -0.01216710284556
O           0.70656617775609    1.18868311575244    1.07330699757319
O           0.61447575306007   -1.18194990527811    1.53496056599768
O           2.47694762133077    0.15073002298208    2.37165477885351
H           2.94195007541948   -0.67965533868686    2.42232478883618
H           0.25760512440985   -1.79988372151802    0.00722776426237
O           0.07530077687273   -1.88076299898523   -0.95310798626497
H           0.94380149953773   -1.85942110149301   -1.36536477254526
O          -2.04612504797497   -0.81679658560811    1.53289919688912
H          -2.30059172356248   -1.72385205010129    1.35150014792456
H          -1.07375393810604   -0.83682011941149    1.63983268961952
O          -3.13030581347745    0.99583741596633   -0.13535226353659
H          -3.29969703962855    1.78722710425215    0.37833036613882
H          -2.84072582312553    0.31551808172545    0.51304991611099
O           1.73703821246144    1.08922885285681   -2.23412111107632
H           1.98411044847240    0.57001954781669   -1.44007231465096
H           2.48740480126779    1.65508440760211   -2.41761050426731
N          -0.66920380553960    0.69384453052177   -1.11408076943538
H          -0.53259686563037   -0.34708862543317   -1.17674844198555
H          -0.17102524727473    0.99962475389918   -0.23441104800675
H          -0.18153860922965    1.12847039022775   -1.90291760133174
H          -1.68184972984910    0.92488922504526   -1.01256520836628
