    23
        -45.37974563  Gyration_radius:  2.28677876988 Dipole_moment: 2.532
 S          -0.52096098892223   -1.77109384353854   -0.00686577878897
O          -0.81595188519309   -0.98236932708656   -1.18390823138093
O          -1.41557184149738   -1.51973953068466    1.10563425308388
O          -0.73792278714105   -3.28895757366760   -0.41188785289179
O           0.87872418412327   -1.65185908619248    0.39795436220657
H           1.42150487585686    0.94513577830516   -1.52262039421235
H          -0.83341383170778   -3.68806076990211    0.44628055138178
O           0.53087955652467    1.22864996800554   -1.80896870401380
H           0.00538007925419    0.40137033008127   -1.79193977291655
O          -2.70686247237665    0.51492398649489    0.14730871456792
H          -2.36328856844155   -0.25648607751849    0.65863678925852
H          -2.59476223798606    0.23236268575378   -0.76757690224520
O           2.64789227331258   -0.00297067860630   -0.65551569092242
H           2.02593265230167   -0.68097334113483   -0.30169380707206
H           3.29134851994127   -0.48272900990705   -1.17838935230611
O           1.12638649575379    0.56676329514100    1.85003172154194
H           0.90320894122801   -0.32946670443333    1.52326110846636
H           2.00091716425101    0.74128908221092    1.48547652951899
N          -0.57320063557510    2.03922302486632    0.41664222560245
H          -1.50982291583145    1.53166723167691    0.38188519949965
H          -0.68726317459101    3.02133412718797    0.63909865508529
H           0.04216710432140    1.54787580692942    1.11754687686501
H          -0.11532050760245    1.88411062601086   -0.54039049031598
