    23
        -45.36231923  Gyration_radius:  2.28604778054 Dipole_moment: 4.321
 S          -1.60894859765586   -0.42746165115619    0.20842377458620
O          -0.30991149551095   -0.92367793505316    0.58535593225178
O          -2.61412567679489   -0.47359700091197    1.21288554073512
O          -1.47115448799220    1.04118840438739   -0.27790734664200
O          -2.07401940276546   -1.18436997488834   -1.04882953443743
H          -1.30659480217069   -1.13951637927673   -1.72287141121200
H          -0.56360038395766    1.18567335153078   -0.68935710766628
O           0.89864386056224    1.37067527792630   -1.20514869679638
H           1.06364571428201    2.28458346712609   -1.44492903227587
O           0.01532944588507   -0.96795098582791   -2.49479403791641
H           0.41489111017496   -0.12133677352319   -2.24345896025705
H           0.58140504455806   -1.64930961912937   -2.07000994921658
O           1.25476087455148   -2.59948891617800   -0.77100084340709
H           0.76960921057196   -2.02407916511226   -0.14626439311171
H           0.91400742466326   -3.48590193325498   -0.64006758860824
O          -0.98213116321698    1.36842650353772    2.50050697201267
H          -1.54080647619338    0.60868293250444    2.28679546424212
H          -1.48518103026706    2.13876862343217    2.22651030152658
N           1.67507000727551    1.03139864330912    1.23843887979131
H           1.30673196571628    1.22941895698532   -0.27058059685342
H           2.44614535535397    1.48044625734166    1.71734036502726
H           0.81520208252430    1.22960909008361    1.75213546141535
H           1.80103142038573    0.02781882613968    1.29682681680491
