    23
        -45.36341731  Gyration_radius:  2.64714305089 Dipole_moment: 7.194
 S          -2.12928903749532    1.21043625180336    1.14147417832070
O          -2.48645282943838    0.49996671474374   -0.08041837239599
O          -3.13886966425305    2.06205575482284    1.67843692858271
O          -1.92732368413292    0.03398886240316    2.25238909570083
O          -0.79027157436715    1.79751416639855    1.03258168147103
H           0.27435446008277    0.62414083483156    1.42677589070742
H          -2.76029660740897    0.09467248995279    2.70801681488928
O           0.71669394563540   -0.26032128829806    1.49071997107771
H           0.12366573888397   -0.76178115669687    2.05766785965492
O           2.54346743858178   -1.72811170142665   -0.01174043605263
H           3.02405451226286   -2.35110070663497    0.53502977642822
H           2.04745310976466   -1.15418210495055    0.59585959969653
O           0.40444708857666    2.42990688426731   -1.25903045496183
H          -0.10168291858230    2.37572393112069   -0.42010034007831
H           1.18146436616153    2.95716465092714   -1.06802941336477
O           1.01156899127333   -2.33430846933452   -2.22020541822403
H           1.55405637530224   -2.45253185244899   -3.00058272911305
H           1.62358077737792   -2.22382026354333   -1.46838119327696
N          -0.23378508217563   -0.18333907602410   -1.10874241600638
H           0.13493586644314    0.71408058656431   -1.47442994295773
H          -1.25038480487122    0.00009277808006   -0.83265751174464
H          -0.07674579079374   -0.96919927409469   -1.75705797678912
H           0.25535931322069   -0.38104802246921   -0.21757558156648
