    23
        -45.35094063  Gyration_radius:  2.37602891198 Dipole_moment: 8.137
 S           1.99174881377095    0.94326327113245    0.76400175266161
O           1.58630067597296   -0.32493558909282    0.21581450681360
O           3.31712402382631    1.36770838640801    0.51304513839679
O           0.95705339066500    2.01552375542082    0.26323632060176
O           1.71839647558686    0.95230752803514    2.28545849243105
H           0.73823384369793    0.82292208242754    2.37557672352393
H           0.44596053732928    1.66893942126811   -0.51350753207756
O          -2.02440397990880   -0.31950167665563    0.08876074993278
H          -2.93285384491352   -0.62363061068205    0.07182639497757
O           0.92059626285228   -1.10654831485799   -2.39182715523975
H           0.41375361440920   -0.30728704118901   -2.56230086284859
H           1.39227810719126   -0.92256015475733   -1.56687413732671
O          -0.88396846789989    0.88812008100068    2.22984232824735
H          -1.01553081693036    1.82100354965434    2.04473056644084
H          -1.29114750788193    0.39718852810815    1.48470065673309
O          -0.66524986137152    1.20959828581142   -1.62766023881350
H          -1.21875264100615    0.62214388249068   -1.06258199219842
H          -1.20930230904415    1.95759312244738   -1.88191085710468
N          -0.43539518789744   -2.33304226342971   -0.13867136566571
H          -1.43243058330598   -1.16139167226193    0.01263505871577
H          -0.20748206483767   -2.39437873617760   -1.12902731499350
H           0.37969437434124   -1.90421489419538    0.29469087678000
H          -0.54462285457786   -3.26882094097295    0.23004189000888
