    23
        -45.35094052  Gyration_radius:  2.37627391854 Dipole_moment: 8.135
 S          -0.66928095701759    2.07213466662069   -0.83824489351038
O          -0.17431641111656    1.57328617084203    0.41850545729947
O          -0.36762031450744    3.41283323568472   -1.17180652329100
O          -0.16358013033903    1.09028875006838   -1.95688516153504
O          -2.19691572233862    1.84641505772467   -0.91074561936134
H          -2.32060688296689    0.86327060879616   -0.84948155122620
H           0.58459575808283    0.53340887077104   -1.61817997310770
O          -0.16148421327326   -2.03658734027312    0.18595277316283
H          -0.17976453139693   -2.96223804566076    0.43269641840583
O           2.38052965619717    0.76727501304325    1.24294151659269
H           2.56170850697032    0.30631996030394    0.41858027033333
H           1.57931199365856    1.27942318867799    1.06243260794664
O          -2.22350940094511   -0.75511055803740   -1.01637384763296
H          -2.01049467143377   -0.83279291420952   -1.94934085871262
H          -1.50859172747732   -1.21709277906685   -0.52889275687434
O           1.64784661757258   -0.64041989333155   -1.19486481909288
H           1.91187413974302   -1.14392081037534   -1.96744057260584
H           1.04560683593836   -1.21139613515516   -0.66364157064491
N           0.04142226310068   -0.58337639812438    2.30149062068095
H          -0.34945404328401    0.27148113509892    1.91097190493436
H          -0.09796007340810   -1.50024436536565    1.06575387343547
H           1.03566989769571   -0.39398333764957    2.41175483084644
H          -0.36498658932346   -0.73897408037784    3.21481788402368
