    23
        -45.37334960  Gyration_radius:  2.36767089383 Dipole_moment: 2.541
 S           0.52532855297502    2.09118204078462   -0.40544391639414
O           0.86461854362057    2.30732296119480   -1.78506907982188
O          -0.83282815926197    1.67245676673201   -0.15157745899493
O           1.47778106565963    1.17893215137330    0.26824752973382
O           0.70970305105260    3.49382566794158    0.33435627424782
H           1.36596293475063    3.93677033096266   -0.19614066330478
H           1.12052977392833    0.12947228866919   -0.97282134403905
O          -1.71742644361549   -1.37129941490604   -0.99202630532780
H          -2.40399931143981   -0.98210756225556   -1.53560231374225
O           0.64982936920873   -2.68671715910748   -0.04599639634345
H           1.01339400624237   -2.15370153474900   -0.76741140801188
H          -0.28590067585099   -2.78169740577308   -0.26123491520429
O          -1.95163666838614   -0.10687921346364    1.42453221206430
H          -1.69588213770294    0.72348162069155    0.96640613503357
H          -2.11300034921476   -0.71783340973684    0.68172928425665
O           0.75903091388970   -0.42640736830731   -1.69319819282171
H          -0.88490996901044   -0.92779662852352   -1.25931423604293
H           0.73600346636541    0.18580578522912   -2.43605890251779
N           0.54790689255746   -0.72621980535390    1.79728999200619
H          -0.50643787896175   -0.51277805307075    1.82099311636409
H           0.98758644590239    0.08943816267243    1.27614410095737
H           0.94796646485381   -0.82979551270436    2.72237285468186
H           0.68638009243891   -1.58545472830473    1.20982362321917
