    23
        -45.37131718  Gyration_radius:  2.26542712148 Dipole_moment: 7.931
 S          -0.16549900556620   -1.48790883775740    0.84307238096986
O           1.17988354595498   -0.93215157960121    1.12232188754637
O          -0.19723330755306   -2.90803139254948    0.82335206597672
O          -1.06639792392664   -0.95467817948302    2.02436023885608
O          -0.71715368684551   -0.84997765290156   -0.36045808921353
H           0.10296917813226   -0.21590905824755   -1.69294489252153
H          -1.05921249014934    0.01100020915394    1.91759710504078
O           0.84024915479460    0.21792061864996   -2.17704564222238
H           1.50201828654865   -0.49387759125919   -2.20114522861907
O           1.93099943104671   -2.10209616592149   -1.18570817412614
H           1.83594613129668   -1.77364435321189   -0.27723418197107
H           1.40345455784427   -2.90357711898416   -1.20592144267689
O          -2.65827617080931    0.87363449959681   -0.51448925819272
H          -2.06606286618623    0.08467979004116   -0.49021196943545
H          -2.65015109219341    1.17845030419321   -1.42382294973483
O          -1.14155006374587    1.77066582176485    1.42437341271809
H          -1.65054901071607    2.21037953033306    2.10762497469396
H          -1.78363541457982    1.54304911781261    0.70199673195211
N           1.28768940211195    1.39385693796575    0.11065402277897
H           1.16347551481292    1.10955673056886   -0.91593442769743
H           1.33194217830222    0.42747493842770    0.61993661964322
H           2.12542969585157    1.94269996614102    0.26699636325250
H           0.45166394556645    1.85848347525497    0.48263044299104
