    23
        -45.36574351  Gyration_radius:  2.23349374188 Dipole_moment: 8.094
 S           1.17752100318343    1.22809424012113    1.00224776981519
O           0.64939284338945    1.45398302022241    2.32697260356087
O           2.56098259847088    1.51586265777125    0.74413389769701
O           1.05606853292101   -0.36795433773102    0.78341279758100
O           0.30354971623481    1.80155578120674   -0.03495132973251
H          -1.09394701067952    1.32290962202283   -0.23190229137681
H           0.24216576717218   -0.56680117446536    1.28055044274359
O          -1.97269232131303    0.86427025704005   -0.46455395473835
H          -2.55438465006671    1.55885447219391   -0.77559207314729
O           2.06461904302212    0.54426137773414   -1.66928408434250
H           2.36244248228008    0.77056541603227   -0.75686122974395
H           1.81577831102800    1.39843551925022   -2.03435593757704
O          -1.31085609312947   -0.32093732762994    1.98440625726763
H          -0.77805598365564    0.39805168891518    2.38912217602580
H          -1.83304177779659    0.10788033439817    1.28821100000481
O          -0.64723747711715   -2.61952045710437    0.38685900555260
H          -1.12777770834542   -2.06582393622733    1.02138751729231
H           0.17235126820947   -2.87148820374179    0.81970360545247
N          -0.21875234585211   -0.83992283352173   -1.63515981334961
H           0.71914009947184   -0.32223567657068   -1.57046760259859
H          -0.35520093792593   -1.22037854053635   -2.56648682945761
H          -0.25196498169513   -1.59789655267103   -0.91149191650381
H          -0.98010036780845   -0.17176534670841   -1.37590002042704
