    23
        -45.36923808  Gyration_radius:  2.42673347209 Dipole_moment: 8.225
 S           0.46052130405439    0.81027404469515    2.17192098891787
O          -0.45333983474108   -0.30576595967118    1.94014216760529
O           0.51724394406595    1.31238009579541    3.50307403289652
O           1.92566388812395    0.15215066152767    1.89175644052413
O           0.32615160770495    1.82014118991175    1.12377517205652
H           0.92726027345559    1.35668371633700   -0.25903846083767
H           2.41609128386372    0.47500449341853    2.64091220453958
O           1.31036572797820    0.94750231809720   -1.08482443356728
H           2.12365593192475    1.42233517133943   -1.25967670164966
O          -1.15215328007683   -2.17634375454065   -1.87373632054380
H          -1.35091812842027   -1.20933396061896   -2.02518470041729
H          -1.02041301125077   -2.56108883056419   -2.74084073339854
O          -1.30694056088975    0.41619188867138   -2.12129403830677
H          -0.40130808949408    0.73278910134108   -2.00630794132946
H          -1.78866357067583    0.74433503246087   -1.32999449282381
O          -2.16926297083747    1.19800163209593    0.29915714085541
H          -1.35369835652792    1.64866390704493    0.57881730759582
H          -2.23049222956571    0.43720727014243    0.88557509149381
N           0.65741651071441   -1.46938092783361   -0.07343878786607
H          -0.03358559531286   -1.90402925479345   -0.74345119295610
H           0.13874712581062   -1.07519365831396    0.78022874244274
H           1.36218567790093   -2.12925394159848    0.23658408101189
H           1.09547233219506   -0.64327026493763   -0.53415558625657
