    23
        -45.35281575  Gyration_radius:  2.41791805551 Dipole_moment: 3.525
 S          -1.38443853670833    0.26028797929911   -1.52747782694851
O          -0.88676628393015    1.24544962958323   -0.62007657488860
O          -2.25831727599425   -0.74835022216161   -1.03108914364440
O          -2.15955485792402    1.04189934525025   -2.66471790042498
O          -0.22192865089492   -0.38539127643244   -2.28231552370235
H           0.61809317779739    0.22343989933223   -2.14830720532902
H          -2.75850018412357    0.42490169769912   -3.08036158244209
O           2.19872793472461   -0.26361060004195    0.43635440433015
H           2.96532297304840   -0.82038658612489    0.57625314688904
O          -0.88991984304930   -0.47891881754602    3.02192065714234
H          -1.80838339899839   -0.20694539537867    2.99642918419777
H          -0.36976347226205    0.30676172960679    2.74813312191359
O           1.65112290898710    1.15477393636495   -1.70019003353701
H           1.08846417152013    1.83629639329205   -1.31291807383907
H           2.01190353564963    0.64786911991503   -0.92619221699966
O           0.47263883217213    1.51484335532748    1.79466457141686
H          -0.10722986659771    1.55550971853979    1.02119540761434
H           1.25360228125296    1.02474521468471    1.50163405684936
N           0.04381781756478   -1.73877226259991    0.61470920459466
H          -0.29904869612412   -1.48450508129759    1.54597113932308
H          -0.69125022639502   -1.49525391355729   -0.04009037743020
H           1.38262905181598   -0.86880034236605    0.48019246640981
H           0.14877860848188   -2.74584352138752    0.59627911850543
