    23
        -45.37539243  Gyration_radius:  2.30857493681 Dipole_moment: 5.184
 S           1.88274554305414    0.01267825432048   -0.48037612880337
O           1.70119325552786    0.41104944560809    0.90754966889562
O           2.66907776692592    0.90548459378332   -1.27138209327644
O           2.69423605640177   -1.37749477244270   -0.41484722800937
O           0.60127409086655   -0.37425714309987   -1.07964288904312
H           0.06401698980984   -1.66082587079688   -0.19585255824463
H           3.54946673041109   -1.16533280753483   -0.77730327858422
O          -0.31196588639671   -2.30147770750618    0.45185353391515
H           0.40953980796602   -2.89606138537993    0.66273450533114
O           0.17414559500717    2.30834596411546   -0.85069456504097
H           1.01257825057786    2.77136844708909   -0.90164772738928
H           0.38131802858208    1.39210195294820   -1.07947491655837
O          -2.15749964233177    1.50889381094918    0.33412598899988
H          -2.37658269396364    0.85289907677007   -0.36164027798897
H          -1.46480977520008    2.06345606881022   -0.06363142790658
O          -2.12915383989725   -0.55530523289154   -1.39540048809798
H          -2.22135805479936   -1.43123499272968   -1.01268199245096
H          -1.17746420639286   -0.43613395764941   -1.53697197333904
N          -0.67734381976696   -0.00928348131694    1.84570802537389
H          -0.79686437156891    0.07771802138830    2.84843675161152
H          -0.78845274145081   -0.98921718797408    1.52188060827967
H          -1.35165344750474    0.63862683091357    1.30041009111703
H           0.31355637411265    0.25400207260057    1.54884837124699
