    23
        -45.35638898  Gyration_radius:  2.38915492896 Dipole_moment: 4.684
 S          -0.81898808680676    0.29948371599412   -1.98641887855894
O          -0.22481640827927   -0.99258948098069   -1.66637311215877
O          -1.80356658179312    0.73269088315460   -1.03828671071012
O           0.22933973429303    1.30092768918654   -2.25013788410711
O          -1.55379161458145    0.11578100060629   -3.38011480498354
H          -0.83026902779204   -0.08119880126847   -3.96702073153948
H           1.17400758766214    1.47013640608463   -1.25262391224335
O           0.26658776199939   -0.71112661520644    2.24765942036559
H           0.20256404493861   -1.16816923022060    3.08682349650686
O           1.78741130711140   -1.00260781463609   -0.01122481701643
H           1.06641146394427   -1.14639717990418   -0.67537415231297
H           1.34956867607003   -1.04247238927864    0.85977864387411
O           0.66018545339439    1.90936444331838    1.80537772513299
H           0.42843425221946    0.98041622396416    2.02546147566399
H           1.18223070952624    2.25065112578560    2.53346831272400
O           1.87187553251391    1.45561936826703   -0.43119503638720
H           1.37680502562572    1.78711703496332    0.38418084188455
H           1.99180952587142    0.41432193816616   -0.25851328199486
N          -1.76442841199058   -1.36582593212260    0.77974681023645
H          -1.88706946967056   -0.52829371576494    0.20144466819604
H          -2.67256200120855   -1.62667438960048    1.14385492808007
H          -1.46129861128984   -2.08837824198601    0.13638633525487
H          -0.57044089171034   -0.96277605852464    1.71310068407404
