    23
        -45.37879737  Gyration_radius:  2.32685495319 Dipole_moment: 4.336
 S          -1.30648315275657   -0.95389322226340   -1.04739231069244
O          -1.35936716947793    0.11274033818358   -2.03226547644346
O          -0.03683088093510   -1.67045963299707   -1.11031807581628
O          -1.62625139181968   -0.51146182080296    0.29321370748377
O          -2.42443722620968   -1.99959830584087   -1.44563860041299
H          -2.15750098510277   -2.24864523445429   -2.32429377502410
H          -1.11688717144173    1.09846234108644    0.82775981172735
O           1.40519942842431    0.45805004494832    2.10377257103703
H           0.89852406846658   -0.34400256349001    2.35867004998806
O          -0.57249167542768    1.88090898719023    1.02908128859573
H          -0.24748132964276    2.18940735999750    0.17306014646230
H           0.71311382402440    1.13367653375713    1.91220272625257
O           0.45011274105827    1.90666918770136   -1.61758223475855
H          -0.27263414376327    1.24963392666241   -1.81174543735633
H           0.43353350704183    2.53778546428332   -2.33865946144847
O          -0.29524871350096   -1.59652512657809    2.31943557193044
H          -0.93119568307257   -1.64249226873825    3.03536450027627
H          -0.79959745482619   -1.29942233788746    1.53233862625862
N           1.87806661125005   -0.06219946340686   -0.38125986976868
H           1.16614334899274   -0.80636852087115   -0.64697266222429
H           2.81668150239725   -0.35696471173634   -0.62603560800820
H           1.60278088598874    0.79244566654602   -0.89403428738110
H           1.78225108033923    0.13225335871854    0.69129880931719
