    23
        -45.36031491  Gyration_radius:  2.61092797853 Dipole_moment: 6.145
 S           1.79177329629138    1.98916981050442   -0.83356254804313
O           0.49564406323787    2.59757500926941   -0.57907473647791
O           2.89890497631685    2.87665671822832   -0.97495853862407
O           2.10935931559587    1.15045966976208    0.53552178809108
O           1.69003820934636    0.95291885590461   -1.86446276130003
H          -0.78411355731134    1.81882966520117   -0.26780655700865
H           3.03396700896678    1.35911687683059    0.61570888368485
O          -1.59289955925233    1.24400180646150   -0.09103875151657
H          -2.32350351832992    1.85115491919162    0.03181502349522
O           0.12224196825308   -2.40132197272112    0.00641904422473
H          -0.66321083689518   -2.81922570090673    0.38629325803023
H           0.35551744572368   -1.71640499865984    0.66307436473011
O          -0.03790417972350   -0.21657180888851    1.64847474276754
H          -0.70701224877220    0.29844359125126    1.16275005199490
H           0.79076845183232    0.25618108689053    1.48726641717911
O          -1.85778711699716   -2.40451719930561    1.94663173947380
H          -1.33113915105309   -1.60803896657292    2.10305193885501
H          -2.07367527663484   -2.76555868677118    2.80701220589710
N          -0.40397035714162   -0.50750099424097   -1.77525470420218
H          -1.09969193427122    0.07471274930602   -1.27591437906860
H           0.50474027562207    0.09515205468056   -1.84535278323858
H          -0.19260254559217   -1.36057356643713   -1.18510886052362
H          -0.72544470920375   -0.76465889898258   -2.70148482842836
