    23
        -45.34975672  Gyration_radius:  2.50674373225 Dipole_moment: 5.870
 S           2.14910265237884    0.65341917791855   -1.22814618742037
O           1.61956256850864   -0.29478398847880   -0.27332717733750
O           3.42336767773650    0.38527771588603   -1.77551968136764
O           1.08539508855227    0.86278712357661   -2.33546378683004
O           2.17054843542740    2.06556460168357   -0.56117315790737
H           1.31784805916433    2.17156627408810   -0.09925466636430
H           0.40070033019149    0.12162451171836   -2.38403686701532
O          -2.13257868165092   -0.28020539436085   -0.25769734504340
H          -3.04413198736910   -0.51947135595616   -0.08674296134441
O          -0.82664810930959   -0.82876830490454   -2.50136424162382
H          -1.34744394284068   -0.52501525692514   -3.24802481689941
H          -1.35444388279939   -0.64327506140130   -1.68595256749041
O          -0.23319765111635    0.34284761790061    3.23169211569376
H           0.52164775821162    0.63843883525654    3.74206334956191
H          -0.25885917455336    0.89882689982123    2.43341875321567
O          -0.12700309376407    1.42089645164678    0.66885827719285
H          -0.99249532314506    1.18136229190213    0.30424672563551
H           0.43813273347927    0.64438973869124    0.47530383594051
N          -0.52183779722868   -1.75168909003204    1.17113214432147
H          -1.55995426932447   -0.89174127371525    0.32567270653063
H          -0.44618715012587   -1.29982918112092    2.08054958296260
H          -0.64120376884734   -2.74535457668468    1.31755204661280
H           0.35967954842030   -1.60686774652163    0.68621389901833
