    23
        -45.34735639  Gyration_radius:  2.44274426287 Dipole_moment: 3.599
 S          -0.11491090343782    2.17995100210066    0.30493892974774
O          -0.92540071719924    1.61193862935724    1.35679186575708
O           1.23572091712690    2.49446309214780    0.59292111862431
O          -0.21095330531821    1.29274375269130   -0.92731428425220
O          -0.84404579306414    3.51061348585582   -0.13885102167274
H          -1.76577618709349    3.43935098498842    0.10190300415292
H          -1.11155543625180    0.64911081324498   -0.78597313301576
O          -1.35565753181684   -2.43810200296805   -0.12200133884963
H          -1.61095125150230   -2.84173804070191    0.70895654299610
O          -2.17413304350901   -0.03001493859175   -0.33764551527658
H          -1.89795120434092   -1.01602673939291   -0.30985117058474
H          -2.12288443020965    0.29783037801902    0.57399316468228
O           1.29634447244598    0.13501070604413    2.04454639557728
H           1.83032464162190    0.85475826311474    1.69082024015906
H           0.41546469234712    0.51525675311764    2.14110822488725
O           1.61369536034469   -0.35697654739954   -2.29644903027922
H           1.10956774392829   -0.58171822390241   -3.08067335581454
H           1.13030011632030    0.35498277205436   -1.85641091856976
N           1.19649960602135   -2.02251410525206    0.08378483887966
H           1.51526391379322   -1.56275849507800   -0.76748970641854
H           1.81203841619478   -2.80647241497154    0.25846838456371
H           1.31663722144189   -1.35578830788599    0.84660694968868
H          -0.33763729783401   -2.32390081658454   -0.08218017498415
