    23
        -45.37098817  Gyration_radius:  2.43896259746 Dipole_moment: 7.091
 S          -0.15049554751275   -1.85799284628819   -1.60284285269242
O          -1.34472968770706   -1.03602781349728   -1.40636014847392
O          -0.37255221794278   -3.09006002433690   -2.28263066044777
O           0.79764954345457   -0.96523131193131   -2.57097428210866
O           0.63419102114887   -1.93346683408662   -0.36986174870825
H          -0.66534078819986   -1.75878983821011    1.23456814565060
H           0.54892786980554   -1.27265846760880   -3.43686951938611
O          -1.50473382982445   -1.28294989147306    1.21265400426541
H          -1.69237561403029   -1.22041533006786    0.25262591120163
O          -1.22250862512196    1.24232931071936    1.79830286635341
H          -1.33335724646871    0.26246929813541    1.62825025052504
H          -1.92590575016810    1.48135794600048    2.40315129541215
O          -0.74990969568663    1.48601278388439   -0.95581563170567
H          -1.09292985482059    0.61152917311959   -1.25255457002914
H          -1.10313482445147    1.60898328280189   -0.05986047679537
O           1.43013157149993    1.52613140634563    2.21106673552515
H           0.45438214768373    1.42543812765317    2.17918840756169
H           1.60267611095305    2.44518908683005    2.41990313771778
N           1.57038743827684    0.47536053058566   -0.27819295001181
H           0.71662765335415    0.99556820321572   -0.66140559154324
H           1.28192541946325   -0.55326047373333   -0.26336098389311
H           2.37277860362143    0.59008338558528   -0.88704288274663
H           1.74829631267314    0.82040028633545    0.68806154427160
