    23
        -45.37086637  Gyration_radius:  2.36871325631 Dipole_moment: 2.713
 S           0.91268495857332    1.56597674938083   -1.20503629409124
O           1.17456898529862    0.43903931966564   -2.06991683739130
O           1.80229432938127    2.67698409410170   -1.30673059872725
O          -0.53782743894019    2.14581189087690   -1.62519233329561
O           0.69471582492280    1.09098909458221    0.17782391488281
H          -0.65115172354113    0.23865159889193   -0.51768721873066
H          -0.27085225233355    2.96756677646350   -2.02233014818180
O          -1.40850156285649   -0.33197170994486   -0.74261267815664
H          -1.93132105742893    0.18705689198844   -1.35638929907049
O           0.61554050627880   -2.09917655766337   -1.63849766122112
H           0.93820627894508   -1.22755334291936   -1.96370929276516
H          -0.34296515123505   -1.98656408874895   -1.60401777093307
O          -0.71904678100102    1.19703376235723    2.47272636786831
H          -0.15520428187645    1.28144334644270    1.68144781248949
H          -1.22929075935455    2.00574642538082    2.52926895220622
O          -1.33179834970658   -1.36843643298909    1.82822264304478
H          -1.24855828701999   -0.50727499837348    2.28090611831419
H          -1.68559576985269   -1.15108054240056    0.95064429101377
N           1.10572050206713   -1.44637730600079    0.84895125217172
H           0.18404850834775   -1.58032954708896    1.37040609443338
H           1.01071655440309   -1.89326213968135   -0.11727206878493
H           1.16692354126497   -0.41721411196859    0.66175128949129
H           1.90669342565931   -1.78705916235991    1.36724346548565
