    23
        -45.38002645  Gyration_radius:  2.29652047206 Dipole_moment: 2.939
 S          -0.29905262048951   -1.72915339251777    0.80395151902662
O          -1.57169831677579   -1.18705265021029    0.37317028186935
O           0.06675953159611   -1.29588549996174    2.14048359955843
O          -0.48183959142714   -3.30283356093539    0.86225948014896
O           0.76243861086997   -1.49926490237793   -0.16677118202035
H           0.14374777223198   -1.27790728341801   -1.67719703558602
H          -1.26729672141545   -3.36836583055018    1.39415072942596
O          -0.05227022379441   -0.97448951857260   -2.59627461577128
H           0.61006840009828   -1.38868293832412   -3.15225566589446
O          -1.65975515172794    1.43437432254453    0.32153852853563
H          -1.79757134415594    0.45790327791467    0.32335093392624
H          -1.07087545624566    1.59144534414937    1.07932109846597
O           1.97308959718925    0.87713842365137    0.01702852502436
H           1.73189028425969   -0.07162509654655   -0.02672220393972
H           1.60447282255022    1.17771712418453    0.86591547918043
O           0.35324473252857    1.26418962654722    2.19251160184160
H           0.47778778594311    1.53744028126933    3.10270781971986
H           0.23911529450047    0.27469387727641    2.21928806354512
N           0.04762779650828    1.52415671832690   -1.64640144990945
H          -0.74879464634166    1.57785889557968   -0.92486720513954
H           0.07751965464865    2.33904078675676   -2.24740211036853
H           0.93490598121922    1.40224794122830   -1.06737503540474
H          -0.07351418176427    0.63705406399428   -2.19041116624643
