    23
        -45.38096455  Gyration_radius:  2.28732797154 Dipole_moment: 3.389
 S           0.08331459408240    0.33934526319989    1.08942458991874
O          -0.77720751502657    0.77851298754502   -0.03080022522367
O           0.55514109302625   -1.00820425253290    0.89036173265951
O           1.15369711458639    1.30114434095822    1.29968694691647
O          -0.84549366272369    0.32840103491170    2.35235694813637
H          -1.07291847664452    1.27438482367407    2.47424002736195
H           2.28530035344951    0.74949107073635    0.16236408917761
O           2.75278120154139    0.23148922859468   -0.52923698307543
H           2.97285764742464   -0.59874667758638   -0.09823639039065
O          -0.90424412859391    2.91693670178649    1.85843282222208
H           0.03238348710349    2.69498237073010    1.72028568651427
H          -1.31594461347315    2.82423317597642    0.99364852291001
O          -0.16071667474433   -2.55215901374615   -1.18022512194017
H          -1.11171842757302   -2.37311556307643   -1.03696866562956
H           0.23525220222736   -2.30034666539755   -0.32472560810662
O          -2.39268708855236   -1.35935143030626   -0.22721213373724
H          -1.90511537820229   -0.51583782206521   -0.16128895952174
H          -2.56271766445422   -1.63173585176463    0.67637770301470
N           0.60122915232478   -0.21155443022168   -2.03184409876387
H           0.53066783645711    0.09215546702603   -2.99669778796925
H           1.56169588316961   -0.05477662586811   -1.62284560073261
H          -0.04652375537420    0.31794069351686   -1.39012930744306
H           0.33096681994394   -1.24318884615617   -1.88696817631351
