    23
        -45.36011034  Gyration_radius:  2.33821768452 Dipole_moment: 4.643
 S          -1.61212528670310    0.16826269144548   -0.83687917177721
O          -1.65315637947167    0.13427069009266    0.62303849150132
O          -1.73312065288347    1.46873123369560   -1.41118073932132
O          -0.44243706720636   -0.58570633105432   -1.32039992771226
O          -2.86985686385114   -0.67004243320361   -1.31998887483823
H          -2.81515300686117   -1.51078924891403   -0.87366703404046
H           0.38582497923092   -1.38687033477920   -0.46871014718300
O           2.40520944416650   -0.13205108069471    1.17431466226600
H           3.18404152463712    0.01139475491515    0.63324618165726
O           0.93921246686562   -1.91848393527459    0.25176860136250
H           1.62400807426060   -1.20032238225210    0.66101387482824
H           0.24997685522300   -2.09992025436452    0.98010551074405
O          -0.99262783722597   -1.98653628313555    1.91574776449927
H          -0.81667284124805   -1.75214619040824    2.82912103987347
H          -1.34998722483815   -1.16373543103756    1.48284764302330
O           0.77916033910395    1.72793136542284   -2.32734802267063
H          -0.17420140016942    1.87442113379604   -2.20273195594076
H           0.84543659579647    0.78074315171852   -2.48059084872851
N           0.76341593200815    1.72237179384726    0.53597169402702
H           1.76713662786724    0.67552756467342    0.98730842115879
H           0.77464833905616    2.62067503700876    1.00207058718000
H           0.91322850795710    1.88799901578579   -0.46350806557485
H          -0.17196116582090    1.33427544271339    0.62845031572878
