    23
        -45.36955848  Gyration_radius:  2.42608729481 Dipole_moment: 3.391
 S           0.08323498923220    1.37018827072408   -1.83807257286738
O           0.87669982265406    2.05203037770728   -0.83924959531272
O          -0.63655875617685    2.19069473511474   -2.75737953776781
O           1.11716015876649    0.51556274684010   -2.73838927368019
O          -0.74054595170102    0.33331352190959   -1.17907323256577
H           0.82893172245409   -0.29439724270249   -0.72710827191190
H           0.94898319322726    0.88058507164038   -3.60084206260635
O           1.55051293612596   -0.83064198031022   -0.34902831965482
H           2.24071624170730   -0.81219539199587   -1.01515073486306
O          -1.67063605182367   -1.76162127388926    2.11195249360499
H          -1.47470007462646   -2.09635238439598    1.19974311649478
H          -1.15713318251776   -2.30192214318324    2.71422897859386
O          -0.84412383340857   -2.31438684632496   -0.34121854542866
H          -1.12018162485122   -1.53220431779184   -0.84129219855192
H           0.11597700129321   -2.21440920661146   -0.26679278890148
O           1.55813319691414    1.16734369799419    1.55595842539831
H           1.48270620416090    1.72186157418145    0.74993289039334
H           1.85918913653313    0.31415062813947    1.20483111693211
N          -1.02346932557372    0.73334304214266    1.41316340414064
H          -0.00271997322335    0.94296214794825    1.65842551497392
H          -1.32345578320896   -0.18804355794192    1.82197584483351
H          -1.63709076126375    1.48626170120069    1.70378425386199
H          -1.03162928470092    0.63787682959897    0.35960111487710
