    23
        -45.37874213  Gyration_radius:  2.34124674291 Dipole_moment: 4.656
 S           0.44370434141431   -0.04850369840508    1.02851940153550
O          -0.79704695247799   -0.28331499623832    0.28290708349759
O           0.52026564142895    1.32434815502953    1.50615045012531
O           0.43657907146464   -0.97204316843725    2.27071865215372
O           1.59856324647208   -0.39640201490802    0.20025435917732
H           1.27592474057205    0.32207577115538   -1.25179706813058
H           0.02455458055077   -1.82581855292112    1.94332042554139
O           0.85994514922886    0.77334713352341   -2.02477222064400
H           0.15757084429796    0.18178785214902   -2.30671848504683
O          -0.67067336802796   -2.89169756410841    0.97328605716507
H           0.07782021002493   -3.16304003760894    0.40130737811119
H          -1.09205393501685   -2.15663609741019    0.50281327584258
O           1.57042129862332   -2.94443694764251   -0.50445504775862
H           2.38688076706961   -3.34761778110172   -0.20514274020049
H           1.65211961227498   -1.98566824553665   -0.30418100477950
O          -2.54817054784083    1.59622936598325   -0.26308763123562
H          -3.09865103902380    1.69982590018779    0.51470546635001
H          -1.97998677913973    0.80773079525614   -0.08565195389490
N          -0.16229763705869    2.70924236160779   -0.55042056000412
H           0.26353905301480    2.08727268288240   -1.29475937091908
H           0.09094005278882    3.68479442736477   -0.65854562372771
H          -1.19714300026639    2.54441674770436   -0.54612629109339
H           0.18719465959576    2.28410791142122    0.37167545789607
