    23
        -45.35374187  Gyration_radius:  2.40132143299 Dipole_moment: 4.694
 S           1.48403372245882   -0.61582769753256    1.88292204611158
O           0.04125474361061   -0.52606978336815    1.85017334212388
O           2.05168422909886   -1.62042423639159    2.70020083865517
O           1.96627942741481   -0.76648041755876    0.40496253483796
O           2.07513683442012    0.76789231253766    2.24582777562670
H           1.54499913188972    1.41395733446161    1.71139183565368
H           1.26352024078738   -1.17025300655116   -0.19287028637314
O           0.19479616458439   -1.67315356908024   -1.22423057801790
H           0.25142026699062   -2.62306814195362   -1.33472584150110
O           0.72807973621503    0.95463357195515   -1.88503139227055
H           0.51865694974312    0.00789933152677   -1.82866525455511
H           1.66069614936474    1.01056400782435   -2.10073082960618
O           0.29414054227837    1.84344485766254    0.68162259892828
H          -0.13630211278910    1.05448362065987    1.05546661338792
H           0.51834260683626    1.61208464175383   -0.24189363788794
O          -2.01227467218711    1.68915607732805   -1.08188930497244
H          -1.31490807419289    1.59883919754341   -1.73997771763750
H          -1.62125609165537    2.19537194657432   -0.36089775691568
N          -2.01095220442544   -1.03484235729580   -0.09111918736617
H          -2.84257242959876   -1.60909865560491   -0.07457313107606
H          -2.26055967505631   -0.10699694862725   -0.43719830434239
H          -1.65950549020934   -0.93383985475597    0.85686293406461
H          -0.73471000541366   -1.46827225110156   -0.79562729682347
