    23
        -45.36689233  Gyration_radius:  2.38064834024 Dipole_moment: 6.686
 S          -0.14316799598752   -0.40760070663368   -2.10719284065785
O          -0.68836366036404    0.77198255783806   -2.73908458247640
O           0.97009049930522   -0.15189820923489   -1.21644187116885
O          -1.16491010749093   -1.23026018718130   -1.46396423833988
O           0.44998783487310   -1.30039954201430   -3.29037144967570
H          -0.19781535430562   -1.16551464807468   -3.97448063140176
H          -1.59555954681524   -0.88219723739015   -0.04748902896011
O          -1.89322523917307   -0.63477061949848    0.88544928528061
H          -2.56395270160086   -1.28101317014032    1.11162448908573
O           2.03558602040825   -1.70457321258770    0.50068900898583
H           1.60766466490239   -1.22271219853585   -0.26417413093074
H           2.96754062796397   -1.48763968985753    0.43476717669841
O           0.83770872605192    2.23577536743996    1.31458210926514
H           0.53486612721917    3.01781830438357    1.77907110392543
H           0.22695937149733    2.13816879334034    0.53671179517860
O          -1.13356309297345    1.88371301935950   -0.38249076427100
H          -1.66202789125828    1.18465216310119    0.01813552990348
H          -0.95163887730928    1.58884776365269   -1.29883375102745
N           0.47554437112672   -0.27538273683700    2.07213139201762
H          -0.48219169568662   -0.46935034853673    1.68163431966580
H           1.16032690771345   -0.88429035582948    1.53089934147936
H           0.69502290839951    0.73637474920016    1.85067000303278
H           0.51511812348163   -0.45972984596408    3.06815772438907
