    23
        -45.38139725  Gyration_radius:  2.27261604851 Dipole_moment: 2.622
 S          -0.68710357735150    0.95891132465514   -1.31090072354017
O          -1.31626219044641    1.20622497555786   -0.02413846841109
O           0.62912003263590    1.54336375684550   -1.42812377668830
O          -0.69149912925870   -0.46617122624405   -1.64090158196683
O          -1.59770766281904    1.66792016708274   -2.39369465823443
H          -2.46752073976704    1.34124779996811   -2.18680729671984
H           0.88163188382721   -0.88189653018718   -1.31542392898256
O           1.81539107216527   -0.91688399456043   -1.00711298873151
H           2.20306058760253   -0.12650031643575   -1.39683637501739
O          -1.55330359923059   -2.53837427199491   -0.21001478285735
H          -1.33344564494999   -1.79975140091780   -0.81420339341994
H          -1.00236604576104   -3.27410103442876   -0.48192983999601
O           0.99426750354844    2.29413136797799    1.05243119386047
H           0.98830539655561    2.17126257274697    0.07609099338842
H           0.05853811613678    2.38105427456653    1.26621903878366
O          -1.12858797228965   -0.75668149324734    1.76449737197269
H          -1.35526210490532    0.00752392331535    1.19248000216221
H          -1.37977912049040   -1.53664165964780    1.23094124304706
N           1.41620116084005   -0.27029202080558    1.54760263720227
H           1.67952373231738   -0.62986390040477    0.59026277830434
H           2.06308687029872   -0.58369146713251    2.26203087805528
H           1.38021903000578    0.78832509622372    1.47874426319541
H           0.40349241133128   -0.57911594293526    1.74878741459035
