    23
        -45.37057858  Gyration_radius:  2.31989407452 Dipole_moment: 6.080
 S          -0.46175201739613    0.30379260847918   -1.94896166515442
O          -0.16355903400172   -1.10957538092760   -1.77799576093867
O          -1.02556829552822    0.68663904172060   -3.20198539858608
O          -1.64011820280884    0.60849813825260   -0.86677485313508
O           0.66115435840603    1.12067916956278   -1.48568616872263
H           1.66721511199178    0.09910808543275   -0.75123498492814
H          -2.26661181382683    0.98592345700860   -1.47419675713839
O           2.12521830564153   -0.66309237913156   -0.31287209606434
H           1.92971180012482   -1.39287397502916   -0.90941652961666
O          -1.19467489728483   -2.47751311804653    0.16076545791148
H          -1.18849280878440   -3.38640546220120   -0.14267930583825
H          -0.90383812130997   -1.93225791608898   -0.61632390907637
O           0.68263216520186    2.87246298101952    0.48549178592514
H           1.60383902570909    3.11283585382238    0.59366526163270
H           0.64450931840916    2.31054183771657   -0.31960090090331
O          -0.91472456790472    1.17521214567051    1.77372684554193
H          -0.32893155312420    1.90920045855581    1.48603656342798
H          -1.45465469543521    0.98989987305634    0.99139510473324
N           0.45877196258760   -1.05491768751569    1.69183599332847
H           1.22339037519978   -0.88868841279518    0.96664305792364
H           0.83403958935165   -1.40633521703376    2.56529385920282
H          -0.07024199425776   -0.13399413884192    1.83429940661317
H          -0.21731403095861   -1.72913997270946    1.25857497385824
