    23
        -45.36082174  Gyration_radius:  2.33792335383 Dipole_moment: 4.726
 S           0.86083727036819    1.11560720364472    0.27206619065484
O           1.11075701342313   -0.28527907822462   -0.01282491964388
O           1.55619818800291    2.03105153133604   -0.56751340741771
O          -0.68133173590324    1.33598639253284    0.12890178113902
O           1.10425685264353    1.40955080878230    1.73559435470084
H           0.56397448251911    0.69109524188715    2.28313915336605
H          -0.99523094950677    0.67415074823602   -0.55322426519973
O          -1.01904179512795   -0.55777131280063   -1.58118250705608
H          -0.18697485200941   -0.87732664453320   -1.19360877224500
O          -0.18408801115941   -0.42555200190261    2.84118349914241
H           0.45089349059994   -1.16538130191745    2.72338536644322
H          -0.94222976588547   -0.63745060250261    2.25952523109301
O           1.52743459747863   -2.21201753871125    1.82379391056989
H           1.55490707817200   -1.56140556260770    1.09779917906265
H           1.21993092787715   -3.03658444241557    1.44285388907870
O          -2.18383084237081   -0.99194054780560    1.03921561420874
H          -1.95198440743024   -1.11391889135767    0.10994595174915
H          -2.76919762167952   -0.23234390110017    1.07485785033302
N           0.24627153023374    1.25051108366436   -3.06858200492810
H          -0.26077502516703    2.03726180110663   -3.45635737071617
H           0.79432671920442    1.60402888686746   -2.28372457167603
H          -0.71777556956967    0.00841302634258   -2.34036038534079
H           0.90267241528418    0.93931511147344   -3.77488376730302
