    23
        -45.38014080  Gyration_radius:  2.28508219745 Dipole_moment: 4.833
 S           0.53488825156759    1.40908666937030   -1.12340883377857
O           1.60025753118236    0.58609673996479   -0.55923622117062
O          -0.18764090377775    0.71281858529426   -2.17278882240134
O          -0.34830295278775    1.96227737317856   -0.11644883746774
O           1.26988603147998    2.63578874460541   -1.79922561911225
H           0.54271756728043    3.20235006821456   -2.03549847310961
H          -1.52011244883116    0.81428113259035    0.45352886169241
O          -0.17899055298983   -1.02613963295612    2.35565235176437
H           0.37780615455750   -0.22163865162337    2.47750365271057
O          -1.34344373143373   -1.50886575739589   -1.56078546504805
H          -0.93248788408377   -0.64957008086103   -1.85074555849578
H          -1.78754797416896   -1.86464789068918   -2.33170062212422
O           1.19883164445894    1.23912845522985    2.02567208190375
H           1.61527343510025    1.02324898298217    1.17433383954897
H           0.48252003489016    1.83454492910812    1.77305211495996
O          -2.01333029215847    0.02523590308057    0.74881308584529
H          -1.01936294478825   -0.68003572080550    1.97312277203521
H          -2.07808498203145   -0.54905263521610   -0.02443135459510
N           0.77261487123413   -1.82309896051361    0.10850669946279
H          -0.03485981975605   -1.99320585925413   -0.51702733130714
H           1.22287195701897   -0.92730236589307   -0.21735278108563
H           0.39647821247026   -1.60688000227901    1.12356270384207
H           1.43001878557694   -2.59442004613041    0.09490176587089
