    23
        -45.35901098  Gyration_radius:  2.35179017235 Dipole_moment: 7.060
 S          -0.40664948023240    1.88318795231544   -0.52922618106953
O          -0.69082326269230    2.11116023725780   -1.91280852746875
O          -0.29548089418959    2.99661821670640    0.34653149562274
O          -1.47504647330973    0.89911028476703    0.03754930975002
O           0.91953677409898    1.07881972365930   -0.41030723541407
H           0.86419292765717    0.23407108784556   -0.95219081505350
H          -1.77237528568588    0.33718994650752   -0.74818712793096
O           0.71507193309011   -1.16213064851354   -1.65538880367818
H           1.53177132454845   -1.40733586732482   -2.09360275350515
O           1.10534301865243    1.83450522784817    2.36670822850904
H           1.93225568931472    1.72188216897559    1.89353022909963
H           0.55009109609684    2.38226713380982    1.78571642984615
O          -0.35164806805773   -0.46577533890947    2.25914217354583
H           0.24021942549139    0.27918145177572    2.48194258684514
H          -1.05380100339107   -0.06541149023721    1.73547813414470
O          -1.82909109008943   -0.28503073649090   -2.19072419932664
H          -1.60095042248632    0.57841840571347   -2.57306099418896
H          -1.01312567539262   -0.81089621929111   -2.21988643700742
N           0.53477074838048   -2.49419336340989    0.53872667626149
H          -0.18875763358764   -3.20231191389074    0.53430053212823
H           0.64456820427382   -1.74530554712862   -0.79668833995957
H           0.25383352894935   -1.77581663971867    1.22179009981546
H           1.38609460856394   -2.92220407225904    0.88065554904204
