    23
        -45.36708454  Gyration_radius:  2.25856288848 Dipole_moment: 5.412
 S          -1.44945866602508   -0.40594386845793   -1.10085585113132
O          -1.83838649090717   -1.77320335211921   -1.25272275780193
O          -2.02628139650659    0.59159999002171   -1.96614785764136
O          -1.97116162609708   -0.00986602978007    0.40801971443550
O           0.00965016064092   -0.26440163758070   -1.00801398297812
H           0.50547770162534   -1.78049242104675   -0.63569519904356
H          -1.90634828148132    0.95215027494255    0.42970339646866
O           0.63851599841366   -2.60482617748105   -0.10945774423090
H          -0.14557019752636   -3.12019299760646   -0.32515315599964
O           2.52518035258556    0.61021470633146   -1.04055440482872
H           1.60741085291771    0.35446422094969   -1.25033501572657
H           3.04152037245706   -0.19540441354896   -1.09866019907926
O           1.21108390744204    1.41898590333445    1.15547748365067
H           1.87517277921022    1.22804522721709    0.45890686969431
H           0.47387729618480    1.82412775048397    0.66531933515573
O          -0.96034830975687    2.36505290457435   -0.39412331499547
H          -1.26938098259878    1.79095254832752   -1.13630213904826
H          -0.98937963191854    3.26752396616428   -0.71854293425172
N           0.14275623050448   -0.86752976592810    1.82053889748059
H           0.69089602912896    0.04242391053086    1.59578100097754
H           0.48852428404695   -1.66281996512047    1.21166539432180
H           0.16609185129692   -1.09412572916440    2.80904102232764
H          -0.81984220359499   -0.66673506506086    1.48211144222479
