    23
        -45.37131308  Gyration_radius:  2.41991260494 Dipole_moment: 4.691
 S          -1.32980721895637    1.29637310916093   -1.28668148443712
O          -0.48359484579113    0.47061706448784   -2.13123385130996
O          -0.74424831873566    2.54746641071652   -0.88261649394190
O          -2.61775546882300    1.64602054458904   -2.15717721986585
O          -1.81530075648188    0.54383104485725   -0.11750091490990
H          -1.60802752358004   -1.28672732202777   -0.43644993941506
H          -2.81830019468988    2.54983962055104   -1.93001984381889
O          -1.04953751283594   -1.85327268972629   -0.99349780204035
H          -0.79503136222747   -1.23220296161361   -1.70211552698262
O           1.76980033554197    0.42520809831128   -0.71371161174161
H           1.79087826724970   -0.52272953696363   -0.49677840353902
H           1.07762250418473    0.52349449895958   -1.39980382508964
O           1.09365033743813   -1.00110717578887    2.71958424043406
H           1.09844432783023   -1.50809877840591    1.87991055792101
H           1.97830355892541   -1.07016196196165    3.08185943176929
O           1.21542355867908   -2.12634826501505    0.25771717303312
H           1.54190247406128   -3.00676428378533    0.06734834132808
H           0.31896258352839   -2.06805280423748   -0.18900799312167
N           0.27723070208842    1.15081921304289    1.32131247579526
H           0.27301365999399    2.11665406829557    1.63133339314848
H           0.50992185986895    0.46497816074581    2.07146477685818
H          -0.66140733089488    0.92254096816492    0.88322644321106
H           0.97785638345990    1.01762299747790    0.52283806640715
