    23
        -45.35808899  Gyration_radius:  2.36141642651 Dipole_moment: 3.070
 S           1.12069443624166   -0.77311957796644   -1.76423954727414
O           2.24388923398093   -0.77663803525780   -0.85118028989473
O          -0.12341305310230   -1.19264147529781   -1.14623917503287
O           0.98443946945195    0.51674838219373   -2.45028258582985
O           1.43249450451813   -1.83228385900676   -2.89714746369503
H           2.24728740142793   -1.50785029574327   -3.26857992845781
H           0.43161530829356    1.48976508381953   -1.54193893938936
O           1.23188176733203    0.71858564067367    1.05391594777640
H           1.83351181694385    0.24848070845105    0.43394867424631
O          -2.06060749783387    0.53354115004639   -0.55728450669619
H          -1.52506134386598   -0.24042358778904   -0.83681292224690
H          -2.15905790664621    0.48307642850375    0.41043867450473
O          -1.79265772593479    1.06068431115715    2.13166066563593
H          -2.09216329867664    1.95788411912977    2.29176977225124
H          -0.84472381949778    1.04088333769826    2.29840767159371
O          -0.01662275879556    1.97658125167196   -0.72405383416489
H           0.50666322052475    1.55886810070246    0.09270803825020
H          -0.96310346486357    1.52447829198260   -0.69374983359917
N          -0.17466854637972   -1.44417147359806    1.69588192178264
H           0.68719611885728   -0.03536112309868    1.41664903075710
H          -0.22103048733941   -1.65218961921336    0.69821166218995
H           0.36747658046420   -2.17586991431089    2.13631571347820
H          -1.11403997512639   -1.47902783475633    2.07160124382839
