    23
        -45.34840965  Gyration_radius:  2.4960621783 Dipole_moment: 5.062
 S          -0.02801703183954    1.98020029499434   -1.60736381609639
O           0.19890341149349    1.20294786968033   -2.79042556092052
O          -1.36030940326135    2.10954846895235   -1.13608937675816
O           0.89550858481549    1.46218317772745   -0.48685276762812
O           0.53894163465764    3.42532262168428   -1.86229553279015
H           1.27427491875347    3.33227092064067   -2.46410953569120
H           1.20408797638272    0.50184285243214   -0.78286204473445
O          -0.62585558021089   -2.00968649385214   -0.26244910371241
H          -0.91206473138331   -2.89880740906702   -0.47583804444707
O           1.37605927717452   -0.77709382455745   -1.44650511161516
H           0.64735667137497   -1.32098948621481   -1.04847817100988
H           1.04128471561622   -0.45265571237164   -2.29654047860119
O           0.01304666684130    0.78169105449384    2.21638370776421
H           0.49035600291035    1.22873693338357    1.51089641047056
H          -0.88902631563212    0.64358841493999    1.85980089540418
O          -2.16201439425302    0.20362120048528    0.69897398314449
H          -1.80152661901690   -0.57945596466552    0.25970261243674
H          -2.08435961475390    0.93208584359890    0.06592534282062
N           0.49201925614347   -1.99829877241375    2.10122491247666
H          -0.21666769013929   -2.04852742303031    0.66878018840667
H           1.47283774510517   -2.24516793728376    2.13523505040646
H           0.41596074762519   -0.99098597220283    2.28919493564375
H           0.01920377159389   -2.48237063735389    2.85369148502992
