    23
        -45.37373415  Gyration_radius:  2.35414242213 Dipole_moment: 3.753
 S           0.04083318481976    1.27581928423591    1.43323102338946
O           0.84443430064252    0.08142314820301    1.60229330945752
O          -1.26290348057363    1.17602640628790    2.05295795815027
O           0.79518452956916    2.44865299781065    2.19843015754104
O          -0.00570155859846    1.70198505098503    0.03919977359616
H           1.33890140379941    1.29971785307988   -0.79575020468937
H           0.53239043764855    2.25510953574244    3.09109980493523
O           2.00745641802288    1.01831496590614   -1.47005117035112
H           2.08845308116507    1.76037791965450   -2.07180103700885
O           1.05552091691243   -2.27952602141799    0.53708310808046
H           0.87648486554617   -1.42880677961457    1.01002333803415
H           1.95293809468322   -2.51311881682457    0.78132165148026
O          -1.62509451320471    0.12309437946804   -1.37285101360537
H          -1.14845111144289    0.85654185185394   -0.93164770666727
H          -2.09930888539087   -0.32299919380468   -0.63524449782392
O          -2.58586149827355   -0.79267026350464    0.92796459072131
H          -3.50125851304112   -0.66897109090347    1.18535688690766
H          -2.07537119648411   -0.11145493522740    1.42450408766450
N           0.56262683389767   -1.20050004755935   -1.83015713580599
H          -0.41195768560763   -0.74512373732919   -1.71957831777409
H           1.24391562613233   -0.40365275196011   -1.84576004260021
H           0.75378040589209   -1.75329897482419   -0.94958218538357
H           0.62298836388714   -1.77694078026705   -2.66104239826154
