    23
        -45.38269026  Gyration_radius:  2.23835022869 Dipole_moment: 4.665
 S           0.31467711959820   -1.32479928371742    0.32415591854627
O           0.16140369894451   -0.47026396985868    1.50809231263950
O          -0.95702437323543   -1.62855921304376   -0.29566661467605
O           1.25211907362369   -0.69952148473178   -0.60954119827457
O           0.93413889951326   -2.68288272393452    0.78668346695370
H           1.76382854558656   -2.42723197346481    1.23226508104600
H          -1.42813384394226    0.09912792507908    1.40861977791459
O          -2.30742345585629    0.33880222421705    1.03877764149715
H          -2.59282970004801   -0.48305996337087    0.62289822213861
O           1.07206075898090    1.80763231374212    0.11784716729778
H           0.92232884952815    1.66267821267137    1.05778426351120
H           1.26529135516627    0.90487494625955   -0.23488425690754
O          -0.74716104820367   -0.26103816834090   -2.51857358049612
H          -0.96106360574832   -0.91578908974685   -1.81516379818019
H           0.21644014304550   -0.27899715899883   -2.54163368987747
O           2.77662592345841   -1.03319318682566    1.75981332102528
H           3.00875095200449   -0.69636014501818    0.88838301211227
H           1.91666979735313   -0.63585948144466    1.97568086354318
N          -1.34228603018731    1.77744931860830   -0.95533811418642
H          -1.18856875397637    1.04747716442054   -1.71597195337881
H          -1.87058763460969    1.29671971556618   -0.16541485803365
H          -0.38258538384026    2.00416933317558   -0.56885409245520
H          -1.82667128716511    2.59862469898453   -1.29995887158272
