    23
        -45.38323084  Gyration_radius:  2.2828001854 Dipole_moment: 1.361
 S          -0.10372913518406    1.15528752727277   -1.49039773183390
O           0.82586396016941    2.07138319038976   -0.86691095314781
O           0.48742473774116   -0.12101276359035   -1.85574966535455
O          -1.31247100427605    0.97423133328654   -0.68845314575552
O          -0.55451590651537    1.83973291131292   -2.84490912075894
H          -0.44841752189614    2.76356452343901   -2.64337324116127
H          -1.14503639302252    0.77926632010296    0.92342284574229
O          -1.00555710780240    0.59795197362017    1.88504314083052
H          -1.74459115219057    1.00415087124745    2.34023662649742
O          -0.55877689400557   -2.07419882921846    1.30439779798548
H          -1.10004139170762   -2.09588670344260    0.48132423843636
H          -0.81768037892535   -1.24868821276810    1.74809023152347
O           1.66762087015787    1.19008506571260    1.48798343455319
H           0.80554605988535    1.10691766215686    1.92699503100886
H           1.47694003190205    1.67912596357446    0.65847824002277
O          -1.73360115636680   -1.63474267490791   -1.05841085746426
H          -1.76502005030534   -0.66549466824975   -0.94146168731417
H          -1.08583705359893   -1.76189386290829   -1.75747843527016
N           1.65321230732598   -1.13492644425931    0.27660464304616
H           0.83934263708213   -1.65711646569022    0.74224146017505
H           1.30174811214178   -0.80122563878190   -0.65799589476808
H           1.83727848991097   -0.25366202129435    0.84828438604559
H           2.48029794944106   -1.71284902702334    0.18203864696563
