    23
        -45.37767338  Gyration_radius:  2.37211857749 Dipole_moment: 3.253
 S           1.11614962867423    0.51204720248534   -0.84097609328073
O           1.89557046481199    0.11458391024111    0.32598220746124
O           1.90778311000137    0.95155899127054   -1.95794468405917
O           0.34545363071054   -0.81877361884473   -1.30165004038559
O           0.03440571910314    1.41339826377568   -0.46483839201669
H          -1.55044327175745    0.95079103834817   -0.39087023551420
H           1.05308374127245   -1.29783711954932   -1.78301535231518
O          -2.47948733807803    0.67356467179288   -0.20801437451668
H          -2.94533696895224    0.74716362722326   -1.04176479590573
O           2.50048438946918   -1.48137411817215   -2.63660576311452
H           2.48037679060064   -1.57520123739171   -3.59177930187451
H           2.56724194286568   -0.51730689374707   -2.45617258581962
O          -0.99504609533675    2.07508296547343    1.92905806713262
H          -1.91120000641025    1.92818651938875    1.67070087296517
H          -0.50834767229936    2.12493631647415    1.08350954046848
O          -1.46378951888260   -1.68127739220860    0.62438273109834
H          -2.07027745979926   -0.94440146993553    0.40710865960651
H          -0.85188905614920   -1.70520997432961   -0.12684055341071
N           0.17573262785629   -0.30673935887853    2.18758119270410
H          -0.29773142529090    0.62583705677811    2.30648727751525
H          -0.50530136247816   -0.97078419106236    1.72294739200989
H           0.97233128978970   -0.14834626167143    1.47758931482225
H           0.53023687027841   -0.66989891747729    3.06512493643603
