    23
        -45.35779775  Gyration_radius:  2.30987867014 Dipole_moment: 5.139
 S           0.85579158395567    0.20456979564581    1.95012679895565
O           0.63740542063583   -1.21061501282002    1.90907328797289
O           1.48127330958132    0.78310950164230    3.07829601794881
O           1.68218087710450    0.61312839141722    0.68029092163349
O          -0.49889581906071    0.93856488113855    1.71697915578297
H          -1.08769918916773    0.43229165651419    1.07881052771829
H           1.49160933219638    0.01162480028352   -0.10810062656317
O           1.23282589755332   -0.83535439098710   -1.39503941380910
H           2.04374159587473   -1.28472879176826   -1.63833543594582
O           0.40972181762509    2.92304393111203   -0.15833458993144
H          -0.16718724887977    3.07149601626549    0.59527039050064
H           1.10026662367785    2.32296911244006    0.15947742715233
O          -0.69000420996560    1.13847379317179   -1.89183207618105
H          -0.32380707483975    1.90643279459719   -1.40621591118384
H           0.05211940648452    0.53382882423674   -2.02713032747674
O          -2.05697589114989   -0.08688438533334   -0.05821443918168
H          -1.60164047709712    0.34900542210116   -0.83982620514442
H          -2.90297179700125    0.35467122896600    0.03792447572341
N          -0.39515765693778   -2.54374395289802   -0.34096902813296
H           0.58229214612242   -1.55500225946983   -1.06127365012775
H          -0.08133160043401   -2.34590351687185    0.60972911050516
H          -1.33577488327350   -2.17494831731059   -0.41876775507512
H          -0.42778217300851   -3.54602956207621   -0.47193867513004
