    23
        -45.35307727  Gyration_radius:  2.44347392527 Dipole_moment: 1.923
 S           1.16419716526888    0.88536656738229   -0.55686478633267
O           1.01011132661687    0.93037112518726    0.87478235986748
O           1.91223164886030   -0.23013539971966   -1.04949101043287
O          -0.19401228708607    0.97373952604457   -1.23987208058117
O           1.83404122834947    2.21708552222139   -1.02862180707180
H           2.73335868997032    2.18698886659698   -0.64358772106477
H          -0.98774514956688    1.05725323108602   -0.58451995364500
O          -0.95479828706193   -0.68779851226575    1.86350001866253
H          -0.13522545513970   -0.17363500122033    1.89699990104559
O           3.78789970666169    1.18490799987099    0.40340094173952
H           3.68151656071096    0.36864670094618   -0.10051511021386
H           3.21801075642876    1.09465989115645    1.17458599857324
O          -3.01068890102703   -1.19764638964497   -1.10745895606247
H          -3.47793613675196   -1.61291216766471   -0.37951652232814
H          -2.87497985581005   -0.27894834719748   -0.85126690146678
O          -2.09468262373459    1.08272292397727    0.42214328860628
H          -1.75122210851584    0.35917741521090    1.05890850407305
H          -2.04169145177477    1.91111200405792    0.90311750140346
N          -0.31424047053448   -2.09959163584556   -0.29424590122781
H          -1.10578191696629   -1.90867447138971   -0.90584854605500
H           0.48829430682537   -1.59964255088987   -0.66386989703053
H          -0.77227240046568   -1.37271988644347    1.16060910299874
H          -0.11438434529637   -3.09032740147274   -0.35236843348436
