    23
        -45.37549237  Gyration_radius:  2.39551900208 Dipole_moment: 1.206
 S          -0.13893332463514    0.59060972647766    1.77193646155579
O          -1.54059741228030    0.80504047743569    1.45936348093646
O           0.29179129185295   -0.77190368036328    1.54734539502262
O           0.71008959820710    1.56310117131886    1.08714085565457
O           0.03375172428726    0.86395465881569    3.32407910262300
H          -0.27316989028549    1.75880208713087    3.43964703192550
H          -0.15439969705059    1.77475430232624   -0.34403671089721
O          -0.72779250593925    1.62332113887778   -1.12537276395999
H          -1.62351240866235    1.71250054802478   -0.78715418955389
O           2.52260976317036    0.63748511632997   -0.66513835856410
H           1.93893650954252    0.88875876007836    0.07884395558874
H           2.55849246427409    1.41052568371299   -1.23218331771720
O           2.04315958222953   -1.67023169978691   -1.96355362923954
H           2.52530739448885   -2.35906311443699   -1.50323874845809
H           2.32136378468226   -0.82557200601062   -1.54359849433369
O          -2.82551150902920   -1.08806366395505    0.05492430596648
H          -2.40883813342677   -0.38760481592326    0.59969715996254
H          -3.50014406023209   -1.48112847848062    0.60920599608112
N          -0.35452108718044   -1.03222892939651   -0.98962650799737
H          -1.26581073510150   -1.49596746832229   -1.04398087852553
H          -0.48584598192896   -0.01986336177822   -1.24255114287182
H          -0.05974494163421   -1.04210480364759    0.02454791967074
H           0.41331957463563   -1.45512163841652   -1.55629694288018
