    23
        -45.35333342  Gyration_radius:  2.36652746941 Dipole_moment: 5.870
 S           2.10109848272698    0.48631284130278   -0.85465857901543
O           2.14721228500338    0.72527603608265   -2.26055678376629
O           3.13362714797400    0.96905890097505   -0.01013454842365
O           0.72679731914595    1.07760938404733   -0.38014562978358
O           1.90542812049644   -1.04196773269630   -0.59678116988656
H           1.24393074892605   -1.29284780962271   -1.31896308611410
H           0.63381607669036    1.05718402095488    0.60797255771755
O          -1.85176108254045   -0.65995216355979   -0.59081269445914
H          -2.61335029682679   -1.23408861585296   -0.68750158917645
O           0.14321427543548   -1.12066191389097   -2.42216303571442
H           0.59470269410929   -0.33592880377858   -2.76731274863958
H          -0.63249589821831   -0.81861621997731   -1.90923326727878
O           0.04687564072682    1.23624976601635    2.14518463039970
H          -0.81874743132555    1.49919635855124    1.74037913520075
H           0.42592235596821    2.02312558927010    2.54150243916155
O          -1.96676305734801    1.82594246443734    0.53551664306454
H          -1.50021120734569    2.37244785958204   -0.10127478616076
H          -2.03591104799866    0.94936078973007    0.10714521511031
N          -0.29750497738817   -1.61674521688171    1.33637712431020
H          -1.28580598854287   -1.05202356987314    0.14177585649211
H           0.60582104938196   -1.73846268109492    0.88892293396665
H          -0.19980836531496   -0.85215806100081    1.99615281724804
H          -0.50608685391211   -2.45831122303243    1.85860857456114
