    23
        -45.36666065  Gyration_radius:  2.38692197757 Dipole_moment: 3.661
 S          -0.18310797853521   -1.00666508293405   -0.15444237144392
O          -1.00020612096452   -0.99521425949942    1.04455084995869
O          -0.90684115868027   -0.68318924517348   -1.34762545935791
O           0.98711471325646   -0.04650156121548    0.04507290959120
O           0.49756438990798   -2.36703786179551   -0.31218873145236
H           1.24997374321688   -2.39750819546559    0.37285391085852
H           0.65568836232608    1.01544195515179   -0.12091157797736
O           0.11658285378062    2.20311898842379   -0.37611129619647
H          -0.80335824515811    2.06822202148737   -0.03693881267076
O           2.32392446954302   -2.08348436872264    1.43645327097697
H           2.58969638750065   -1.20739976120143    1.13754508641892
H           1.77252122469320   -1.94035090139619    2.23909734645740
O           0.47952528735932   -1.37526983954236    3.21727390473169
H          -0.18127675024839   -1.29017686295466    2.49965674310309
H           0.43014763423230   -0.56502940403690    3.72765248553469
O          -2.25593075079326    1.24993122277490    0.30884236470910
H          -1.94161324824694    0.44091113384317    0.75240930948724
H          -2.62451000132078    0.94304082729037   -0.52380973890302
N          -0.25396216293661    1.62815816002776   -2.91994334415403
H           0.55605767568081    1.52531603874756   -3.51754076405299
H           0.03311345346414    2.16520378144575   -1.37807355146965
H          -1.00197732026244    2.02219454916760   -3.47636169287348
H          -0.53912644781732    0.69628867560738   -2.61746087125825
