    23
        -45.37704148  Gyration_radius:  2.4339023037 Dipole_moment: 5.274
 S           0.63706419071437    0.25015904372217   -0.53633562638557
O           0.38302199224376    0.38380945785512    0.91124493358818
O           1.93055062794653    0.73972327769725   -0.92120753198082
O           0.57402492908011   -1.29877656973963   -0.81932968781823
O          -0.47135379727213    0.80590126699738   -1.30425348936089
H          -1.62166228493484   -0.43373628323842   -1.33320729903285
H           1.18096428092196   -1.66291703215320   -0.11374498821383
O          -2.23127394221220   -1.13847745411842   -1.01726889457250
H          -1.69967854332913   -1.93833473922916   -1.04683236934095
O           4.08869800773138   -0.36173560325114    0.13828904139048
H           3.36469000037988    0.17728860081041   -0.24983335520912
H           4.63139643147364   -0.64178459477505   -0.60059338728347
O           2.06493231397825   -1.73170538573874    1.22180485730596
H           1.60274941111790   -0.95892384227910    1.57793645610536
H           2.94566617601814   -1.39363913792310    0.94958881546184
O          -2.28963384368876    2.52136280608740   -0.43162706899223
H          -1.51915671632811    2.05450460424081   -0.82534919649232
H          -2.90278109164608    2.66857850037250   -1.15420556548652
N          -2.16596647690827    0.38432356446579    1.14808263846247
H          -2.40595526023388   -0.36162507571004    0.44741962335294
H          -2.58170425498154    0.23574635501884    2.06044286781868
H          -1.08231398822801    0.39729426162315    1.17753207071070
H          -2.43227817189541    1.30296398922503    0.72144716593775
