    23
        -45.36995807  Gyration_radius:  2.60126960574 Dipole_moment: 2.421
 S          -0.64936529850387   -0.87218374772098    2.05036097686031
O           0.78558793315320   -1.09417788143974    2.13140815311829
O          -0.97519859375172    0.54745892789139    1.93633569313195
O          -1.28834233098744   -1.66721978548316    1.02281907559057
O          -1.25792751811226   -1.35772517283920    3.43744161615345
H          -0.72933011692036   -0.90084216480672    4.08591814549820
H           0.68585816392815   -2.11522949449491   -0.58960090163320
O           1.18810779320546   -1.31939593752424   -0.39569375861472
H           1.16701438449364   -1.25483656048964    0.59876967590137
O           2.81952666351456    0.59846485036499   -1.57157049809631
H           2.38267396753416   -0.11606922074886   -1.07961513123166
H           3.24174082907593    0.18869551375644   -2.32812187594763
O          -2.79677957620606   -0.68171836447364   -0.92606237323979
H          -3.66369410070839   -0.49022090526968   -0.56585312711029
H          -2.31604230589510   -1.16820706770192   -0.21877172264083
O           1.05399043967887    2.65142294198288   -1.70217539583828
H           1.37770325267261    3.36117924580752   -1.14538233949058
H           1.77040022653896    1.98401599514477   -1.73748656172774
N          -0.56308269346830    0.76938018375564   -0.62279307273512
H          -0.14949891749430    1.61421917010828   -1.06737155972852
H          -0.73313427894298    0.88433246196032    0.41646724174964
H          -1.46378952353511    0.45939825629215   -1.03331204005582
H           0.11358162074244   -0.02074124439820   -0.69571023972772
