    23
        -45.34565418  Gyration_radius:  2.40252077052 Dipole_moment: 2.892
 S           0.02637565460805   -0.30588089136295    2.30360831037102
O          -0.33706730669748   -0.39215754022915    3.67343650105723
O           0.30228277553172   -1.48901025164672    1.56591026842748
O          -0.98171604711811    0.57556473355167    1.52406191014317
O           1.31089654698723    0.63123867565828    2.22656140278440
H           1.24961301491345    1.17279557677724    3.00952512942006
H          -1.61042815926294   -0.00389631055033    0.94690223536772
O          -1.07469617804660   -0.30208731818952   -2.14402735082664
H          -1.28294159013509   -0.68291812078842   -2.99752884378400
O          -2.53039434727576   -0.66797301927875   -0.01463337804369
H          -2.01732567174603   -0.59563057900147   -0.86947099559736
H          -3.31659914649494   -0.12626741695079   -0.11813920628394
O           2.40684231984452    1.06459133589010   -0.49310814571036
H           1.61210878610288    1.58106505633230   -0.72534104977392
H           2.36061178899764    0.93913966829755    0.45882924769606
O          -0.15451912064975    2.01289518180997   -0.82714014673072
H          -0.46486349242590    1.73912405781057    0.04368374700690
H          -0.49845120856364    1.35521860011469   -1.44965188139875
N           1.07735552158005   -1.36498724221519   -1.21981247143168
H          -0.19720338286850   -0.75376301913353   -1.82551172179881
H           0.82822577356829   -1.63770155265759   -0.27087817495295
H           1.53926979156977   -2.14812728761557   -1.66299933701128
H           1.75262366758577   -0.60123232664801   -1.13427605893029
