    23
        -45.37140998  Gyration_radius:  2.3175175622 Dipole_moment: 2.483
 S           1.32360571078842    1.08004190121297   -0.61612501236865
O           1.37278099221234    0.35101072315067    0.64019195987944
O           1.55296108686144    2.49001226209923   -0.49786891790283
O           2.54860157720298    0.50276059459073   -1.48937640101030
O           0.12534673494482    0.73026915064884   -1.38077494104889
H          -0.89322847095879   -0.53994078868177   -1.54754528383051
H           3.03816109427017    1.27686024488328   -1.75328998620815
O          -1.50805887493896   -1.30488053076149   -1.44705110125706
H          -2.38919315116291   -0.95418687004352   -1.58761272741966
O           1.36551096917729   -2.09088330220281   -1.00097648795957
H           1.86010260902494   -1.27147545317256   -1.09021485629455
H           0.69928921245742   -2.08413895388547   -1.69297163100013
O          -1.76202483244347    0.42161033406299    2.44487388392582
H          -1.30920281524921    0.74127516789306    3.22722731990377
H          -1.60712879227955    1.10538205712900    1.75338307353962
O          -1.05360817502649    2.17198494015946    0.53060121267088
H          -0.81514692613888    1.67196725969809   -0.26840840670679
H          -0.30326007664856    2.76288121751691    0.65220584416776
N          -0.46359426865912   -1.44223201426280    1.04164658408578
H          -0.94238198507660   -1.57510858601562    0.12179923149176
H          -0.14503913025557   -2.33124570129120    1.41081965090089
H           0.37856086150532   -0.81211009965015    0.84974747671283
H          -1.07305334961348   -0.89985356307050    1.69971954573904
