    23
        -45.38002654  Gyration_radius:  2.29647953716 Dipole_moment: 2.952
 S          -1.37137579946826    1.08141459854346   -0.82262310444650
O          -0.60181318728759    0.43086947464181   -1.86368925708901
O          -2.46522525592909    0.25721893232131   -0.34098299209472
O          -0.53448091657868    1.58360013621102    0.25860545699591
O          -2.01867837073010    2.36736360819180   -1.48635489733131
H          -2.40998337555918    1.98504991327817   -2.26406561540174
H           1.00844762678101    1.83896192597768   -0.25870677858623
O           1.98990619795679    1.89946498303676   -0.34956307290710
H           2.24899393328529    2.67356500795431    0.15348270521848
O           0.48104484064825   -1.84385427477654   -1.13105867902196
H           0.11500927698513   -1.03788530065749   -1.56571844270104
H          -0.22363100925241   -2.12551763153215   -0.52289519383522
O          -1.54846039667020   -1.89976872408860    0.72859925858645
H          -1.94518472081660   -1.08613317260607    0.31222263550546
H          -2.28697100987240   -2.47666937446086    0.92960354611281
O           0.07301611067868   -0.20719121305937    2.14813308240454
H          -0.22792169412716    0.56368586488844    1.62319330637023
H          -0.53536657222708   -0.92198251156853    1.89186654626218
N           2.08989288894332   -0.62792417803240    0.52082886887119
H           1.40044106046114   -0.50967717546511    1.32581202021129
H           2.25395321200734    0.33026004611563    0.13023290447784
H           2.95254049623618   -1.07776780611724    0.80299202478285
H           1.55584666494817   -1.19708311051937   -0.21991433038552
