    23
        -45.37796980  Gyration_radius:  2.33872036841 Dipole_moment: 4.750
 S          -0.01295332626434    0.44400754206009    1.21331974346939
O          -1.41385480818671    0.48092087617718    0.80210280286387
O           0.80446565864703    1.33903429783455    0.39405367381152
O           0.06623531445879    0.94035405530107    2.69423137216395
O           0.52295753471818   -0.90704737185864    1.20709645340310
H          -0.23674914785875   -2.00295727675613    0.25973405503658
H          -0.51817162826108    1.72385067168481    2.71605824993407
O          -0.49269828756974   -2.66579821363878   -0.42944901916022
H          -0.27911475545227   -3.52339180412805   -0.05846847048338
O          -0.75885090805421    1.06534622297812   -1.70502039336917
H          -0.07862644295754    1.49825339661090   -1.15266391210967
H          -1.38757949196172    0.76961574065875   -1.02285930450797
O           2.56183762748810   -0.35974193527176   -0.52323106864705
H           2.40411463541979   -0.97500393126450    0.20364097708596
H           2.07566337300519    0.44299032250745   -0.21883455095353
O          -1.93277536401062    2.61686966815405    2.21718118272295
H          -2.72013863102533    2.49779128726769    2.75280075889929
H          -1.94538796208305    1.90434858184297    1.54313538935224
N           0.67476197941909   -1.07506590723090   -2.21482845148297
H           0.19244334561821   -1.84406935022632   -1.69195336338434
H           0.03964912796027   -0.21532245019990   -2.15821834324411
H           1.54975482855649   -0.82413934594839   -1.65503471784367
H           0.88501732835777   -1.33084508652924   -3.17279304357072
