    23
        -45.37477551  Gyration_radius:  2.35972025731 Dipole_moment: 1.207
 S          -1.58103398750528   -0.62573826798693    0.34392656756884
O          -1.70438237941792    0.82501352229700    0.19499492843578
O          -1.34429190579247   -1.31343555107531   -0.89478296384301
O          -0.58779420796825   -0.94221772261000    1.36971970386901
O          -2.97474679107019   -1.12320078326806    0.90493535619636
H          -3.09900006342548   -0.56451331418858    1.66572551818786
H           0.68250730187928   -1.88160094229808    0.79470059259346
O           1.50096039400622   -2.30034583759166    0.44635991981975
H           1.28451106875267   -3.22374000060336    0.31012348052556
O          -1.06773575537059    2.94532428183341   -1.53937306587915
H          -1.59567322487438    3.00852209472251   -2.33621987615389
H          -1.52252015178648    2.31343665683224   -0.96350706188182
O           1.11731457775318   -0.80360899671715   -1.78358697837644
H           1.52910285220242   -1.40706173007174   -1.13564395599251
H           0.16696278086483   -1.02924599084785   -1.72830745414248
O           1.78481743039632    0.24449320729043    1.97375955751101
H           2.34365573153263   -0.50637372446311    1.74941980689703
H           0.88547790063554   -0.12861567180502    2.02585474659325
N           0.86199831639482    1.32872627737817   -0.28033865457561
H           1.41737089679840    1.14554407435137    0.58755539174432
H           0.97559817398326    2.26363710583729   -0.66658760150009
H           1.07956359506670    0.57144738203664   -1.00265447843321
H          -0.15266256306403    1.20355394094710   -0.03607346916769
