    23
        -45.38167841  Gyration_radius:  2.27409116391 Dipole_moment: 3.824
 S           0.98519366988710    0.74740949834401   -0.89005932099828
O           1.27959711474898    1.27485827508953    0.45174641322524
O          -0.13038405345598    1.40648741731642   -1.51313594256848
O           2.24623170360864    0.97699334072727   -1.77625852747285
O           0.77980127947460   -0.70604631327431   -0.79391928457576
H           0.16033181825599   -1.51998400936477    0.58070188747427
H           2.95408582135778    0.53730833195701   -1.26348224553174
O          -0.42153118435853   -1.82686048395185    1.30908770244710
H          -1.16200747055525   -2.24743884050996    0.86125582049155
O           3.39674788281922   -0.34239747900388    0.20200575643543
H           2.79840298682539    0.28258028596526    0.64488009535640
H           2.87790246251591   -1.14085787137984    0.06265759554282
O          -2.46502349585863    1.08933828932320   -0.29722198028813
H          -2.52723253185314    0.16783182153671   -0.61717423152546
H          -1.73750703615339    1.45609592850724   -0.84129760311430
O          -1.77171164965341   -1.33520417967956   -1.29836139949802
H          -1.95180798393167   -1.37464227150855   -2.23885085566601
H          -0.82224902296805   -1.09895867233505   -1.22050279172464
N          -0.91089315196697    0.74257910463061    1.76601914900439
H          -0.81100580520830   -0.30408596761219    1.82435353838071
H           0.00055493904227    1.08771152771420    1.34516737666236
H          -1.67054706757858    0.95800880058765    1.03573971083085
H          -1.09694921527089    1.16927343672143    2.66664913711842
