    23
        -45.37375991  Gyration_radius:  2.23840614277 Dipole_moment: 5.513
 S          -0.90699085519704   -0.91602780171106    0.64744264553494
O           0.28525218150434   -1.34585044370863   -0.11608416766478
O          -2.08360318123054   -0.88656423328774   -0.18265521089350
O          -1.12410672106833   -1.96697174062824    1.78022923992081
O          -0.63624169977595    0.37083047528582    1.27992841841698
H           0.78321850826730    1.13657516319017    1.29012087750688
H          -0.27768583067006   -1.97203087886320    2.26390192552463
O           1.63822788301810    1.61899640636100    1.15207281812230
H           1.58361831105387    2.41271670458667    1.68620691244871
O          -0.61237551550384   -1.06993934044918   -2.73441753159977
H          -1.57016711920214   -1.02552234417372   -2.69793681852145
H          -0.35257438327343   -1.48430153567932   -1.90099877803116
O           1.48296943897666   -1.50547285028625    2.25999023227362
H           1.76320922089917   -0.60226350997861    2.43173431011287
H           1.35795532334967   -1.56461407361261    1.29794932949254
O          -1.69973527242326    1.59599244444146   -1.01302475895885
H          -2.00840584324747    0.67896931794551   -0.83820243741480
H          -1.73607662795243    2.01684954496488   -0.14916354733833
N           0.85015548589018    0.92543698544577   -1.31677987374918
H           1.40618449253220    1.43467841513421   -0.60491644530108
H           0.74013072496736   -0.06170820201360   -0.94848175593726
H          -0.14451860953446    1.30235650669080   -1.34190509171157
H           1.26156008860422    0.90786500032900   -2.24501028225909
