    23
        -45.37796991  Gyration_radius:  2.33908110283 Dipole_moment: 4.758
 S           0.78219036931424   -0.83245818926304   -0.60274394119161
O           0.22506803549102    0.08900693872315   -1.59327494900824
O           1.65531275249261   -0.13516620988293    0.33754379603900
O          -0.27007990973818   -1.57214195543926    0.07411997407010
O           1.64406557759912   -1.89298813566234   -1.36316943567585
H           2.46866956395996   -1.41731036243793   -1.58616457938223
H          -0.66745835335400   -1.08478229824960    1.58385433040301
O          -1.11264970408148   -0.73801370329345    2.39714068649695
H          -1.51207200753805   -1.49955965692568    2.82048800471232
O           3.72571719728872   -0.25341594859848   -1.25360456974399
H           4.49947641574192   -0.58639700910347   -0.79373346437246
H           3.08044865073663    0.00290941146572   -0.56063526532953
O          -2.32550030144910   -0.31430787949658   -1.21066267619136
H          -1.43534746728429   -0.09472932909631   -1.57537908124843
H          -2.17217008826154   -1.18390988522746   -0.82115392817292
O           0.29213007307023    2.12915078518843    0.06743984333309
H           0.93351015671765    1.55663544147467    0.52441156102308
H           0.24760282415684    1.69419472954161   -0.80666693118269
N          -2.04149676387495    1.24833434078415    0.88959269882082
H          -2.31511173430025    0.67865047951983    0.02777949399047
H          -1.81074059469732    0.56041415883197    1.64513204434435
H          -1.12845066522977    1.74300745294908    0.63049213176134
H          -2.76311400678263    1.90287681419626    1.16919426651140
