    23
        -45.37871400  Gyration_radius:  2.329641068 Dipole_moment: 4.108
 S          -0.09650663421115    1.48815981089320   -1.19708075029740
O           1.05839336895353    1.95952120237012   -0.44105232315420
O           0.17067328006818    0.31448048163549   -1.99187386880737
O          -1.26289516159629    1.33957139026185   -0.32501548339660
O          -0.45907324255262    2.64316271954673   -2.22177566658748
H          -0.55662893930268    3.42005786275602   -1.67939454872818
H           1.76890370243517   -0.54101528530029   -1.35002911264346
O          -2.00506039194652   -1.03883048635869   -1.21868917178279
H          -2.01590056215898   -0.16070151112969   -0.79277041093646
O           2.31831126363086   -0.34364455435954   -0.57559913250805
H          -1.29186257774519   -0.93260876983702   -1.86493137099155
H           2.13776193371906    0.61218730208835   -0.45609576467028
O           0.02068154261838    1.27380957458080    1.94396318394828
H          -0.67852980429418    1.29423864932412    1.25265872615286
H           0.72002298895607    1.79343590338456    1.52170011251310
O          -1.13990739321930   -2.59348810776587    0.69687429704101
H          -1.89950412058893   -2.72146437913709    1.26702261710168
H          -1.47822961431313   -2.07527996239289   -0.08698800546328
N           0.94513095948084   -1.16442941451581    1.52214180326094
H           0.55459437310713   -0.22299646536615    1.83062845685002
H           0.14294939541123   -1.78431207569032    1.22549789363378
H           1.56435192773268   -0.95815931306669    0.67786570783033
H           1.48232370596563   -1.60169459274698    2.26294280110929
