    23
        -45.38134469  Gyration_radius:  2.27268983636 Dipole_moment: 3.500
 S           0.27234829048069    1.26734628805848    1.18486586938702
O           1.63778590852336    0.76353772336648    1.22673836649857
O          -0.11839069119516    1.74653430934074   -0.11849078955745
O          -0.66070893123781    0.28458156048219    1.73547446415578
O           0.22466630562112    2.51472016551840    2.15790066098242
H           0.57945429936584    2.16260947930716    2.96777301827354
H           0.09605143407022   -1.13249499650823    1.33304789876589
O           0.69931472161332   -1.82286771274276    0.97527049198998
H           1.57168467172588   -1.49095739395565    1.21279599931142
O          -2.84014953392425   -0.68625981934643    0.53816651549215
H          -2.13046497849416   -0.24591209648337    1.04855297952603
H          -2.92720904996585   -1.56501060818441    0.91059216544314
O           2.17583693233851    0.84123590425847   -1.33766920083141
H           2.15574299049770    0.81896695243340   -0.35314760558908
H           1.59735076406013    1.58141380480548   -1.55119600104736
O          -1.62105873720430    0.19531159675340   -1.69007886496378
H          -2.25786886746281   -0.16252370593498   -1.04003777496267
H          -1.19103427404163    0.93535824662631   -1.21459561587146
N           0.55219199162965   -1.23134907402523   -1.61971495032265
H           0.58203835304923   -1.62912280863447   -0.64322171239086
H           1.28774853213398   -0.46667316340490   -1.65080278201588
H           0.71283794802464   -1.94195603504978   -2.32421556762758
H          -0.39816807962239   -0.73648862665563   -1.74800756465811
