    23
        -45.35381859  Gyration_radius:  2.3811374733 Dipole_moment: 7.882
 S           0.87871154239942   -0.74106142992259   -0.71632128643227
O          -0.54505651846703   -0.52802695830306   -0.69544998973564
O           1.34078916441826   -2.08311033416922   -0.70092955348141
O           1.47481122730917    0.01887682923366   -1.93107042400427
O           1.50602193406992   -0.00971981241482    0.49735673440804
H           1.02388483277241    0.85172800801977    0.70690761722571
H           0.93668386359023    0.86038958228282   -2.02023066981229
O           0.20725475540353    2.13522611429951    1.06377611392220
H           0.71208220160894    2.65648328735352    1.69145779695018
O          -0.22682306580383    1.94478501069226   -1.69346130355371
H          -0.07872209746587    2.31772154742748   -0.81103565490459
H          -0.86801089076161    1.23164008639449   -1.55953663212817
O           0.42458600260348   -2.30991944784603   -3.34276699564288
H           0.73003168162700   -2.54165808796803   -2.45944805719977
H           1.01684422668795   -1.62285429208745   -3.65474225763091
O          -0.63185619684500   -1.92432436577454    1.62724077863402
H          -0.83048072959759   -1.59057948862140    0.74052231862288
H           0.13655543706150   -2.48888950367066    1.52006927868669
N          -1.50522623650500    0.73700364261195    2.42228589397765
H          -2.41564022631853    0.73572878495801    1.97876165125818
H          -1.64031896832277    0.91551617821622    3.40996727312023
H          -1.13013849131698   -0.20750468191144    2.32314157772059
H          -0.51598346803721    1.64254933131210    1.60350577965136
