    23
        -45.34541371  Gyration_radius:  2.55720456824 Dipole_moment: 4.518
 S          -1.96976345335211    1.59267959553454    0.03357251407192
O          -1.30590272686034    1.61884887230980   -1.23764666804811
O          -2.40358976406291    0.32347469564047    0.50968795137285
O          -1.15105666555930    2.35454483354859    1.07837562521825
O          -3.23678863628578    2.53080789513033   -0.07448876418897
H          -2.92951857988236    3.32777929708965   -0.50135925917558
H          -0.25890571603229    1.84853258484391    1.28655172179340
O           1.43282894748748   -2.08853808014787   -0.68711082747511
H           1.63343538458226   -2.87382590388140   -1.19745603817736
O           2.43610467125499    0.45523607225270   -0.65750627425416
H           3.38019361058786    0.41986527998394   -0.49585463061570
H           2.12804773654298   -0.46595770799992   -0.75282989150510
O           0.77509956137467   -1.55809200491474    1.92056224858958
H           1.00638532952647   -1.84824912744169    1.01878362560895
H           1.42344383898188   -1.93902461833718    2.51473287528366
O           0.96123226226058    1.10136518194804    1.50537023027753
H           1.45914765227468    1.02757313059156    0.66173258716027
H           0.74820572369811    0.17802145455424    1.76190606557926
N          -0.90836177513438   -1.20098526830531   -1.38667872869577
H           0.51174623477990   -1.77197026698101   -0.99516895656903
H          -1.47432677341980   -1.15178116541133   -0.54248507775107
H          -0.79065180877019   -0.22732559358963   -1.66183214048330
H          -1.46700504398969   -1.65297914642792   -2.10085818800930
