    23
        -45.38497744  Gyration_radius:  2.25796799012 Dipole_moment: 2.523
 S          -0.23980858562211    0.01875248726437   -1.85309302354766
O           1.05603362388954   -0.49320393340663   -1.41080974696932
O          -0.25188623798305    1.46848372845468   -1.90223335610744
O          -0.42249501222041   -0.47841306159806   -3.34570361899319
O          -1.34015478054596   -0.55054979218845   -1.10400843790061
H           1.36765502307135    1.44029789809964    0.84848686595451
H           0.20562805885103    0.06291370209525   -3.81181945576973
O           1.90489547326647    0.63004199297672    0.85193947283795
H           1.77607735059622    0.24483192356970   -0.04067083772987
O          -1.76137730565544    0.45794236203717    1.32782663136930
H          -1.82163458418108    0.08881836044984    0.42228453890698
H          -1.31942548283154    1.31593362357692    1.20609774052763
O           0.08916472452129   -2.60250907593350   -0.17433667087771
H           0.69221170117390   -2.02625251116070   -0.68660654067993
H          -0.77790556765662   -2.29848361837731   -0.48292957226193
O          -0.10292945536690    2.47303474527900    0.47544458000059
H          -0.17602690286983    2.13368923555028   -0.45611476410238
H          -0.17381646493887    3.42694577662966    0.41441027061466
N           0.26400994901939   -1.08077867645221    1.98314059272083
H           0.21201257022355   -1.84143335406287    1.24414559166413
H           1.05019540719395   -0.42632069642409    1.68451129910484
H          -0.63055412117211   -0.50753613634867    1.89597257871050
H           0.40013060889015   -1.45620496043498    2.91406585380086
