    23
        -45.34625025  Gyration_radius:  2.48372765178 Dipole_moment: 3.483
 S           1.11972506764228    1.09911849624913   -2.02140159031411
O           1.60760552085086    0.88066600751934   -0.69052732238843
O           1.99178125148738    1.62741763051975   -3.00356589520501
O           0.64938409985248   -0.33985297205004   -2.53768044721797
O          -0.19454237304580    1.87628317926934   -1.97607962110025
H          -0.58160859212507    1.77111994853589   -1.00820879244196
H           0.66756955867958   -0.29925036963357   -3.49119931985191
O          -0.76326574605410    1.40830628779160    0.39365365943643
H           0.15366163821308    1.08684439668183    0.38919285724196
O          -0.04125443296670   -2.33258166570040   -0.49204242522914
H           0.59555146147973   -2.09080654476361    0.21228657618537
H           0.25819206122808   -1.86641745466085   -1.27776253641060
O           0.08504302291805    0.60067686028947    2.97596846408277
H          -0.40809126106048    1.12835721970288    2.33176783700129
H           0.57678214427254    1.21160517395374    3.52682277275797
O           1.59185510900747   -1.10694146315741    1.29205620200651
H           1.08742616917005   -0.65328532552646    1.98647021702722
H           1.87230279311915   -0.42790171173960    0.66496951163792
N          -2.13083305153223   -0.78151255276863    0.55115498064979
H          -2.27210478315746   -1.03130241042488    1.52187175775890
H          -3.01874327657849   -0.85534309937459    0.07292013760869
H          -1.36020668245821    0.56720133688914    0.43273291183700
H          -1.48622967894604   -1.47240097759958    0.14660005492406
