    23
        -45.36373183  Gyration_radius:  2.3335905529 Dipole_moment: 1.579
 S           0.38128065115282   -1.06082049433119    1.52605316981437
O          -0.00196840171294    0.06833441884636    2.36189882705373
O          -0.68911077078344   -1.47623495457504    0.63304902278431
O           1.63527055453634   -0.83226396945459    0.82989709424591
O           0.61381528607193   -2.29103871069065    2.50165233215902
H           1.28427823427611   -1.98474136461170    3.10499554900464
H           1.69802781530728    0.88708201826491    0.58512668822859
O          -2.17247793502069    0.63243572353665    0.82232668201588
H          -1.88586656431679    0.82834395644043    1.72384030645796
O          -0.72833783877627    2.11206888237535   -0.62858049522623
H          -1.40772759220030    1.55604179140532   -0.06586420808177
H          -0.59879776772893    1.61145664719033   -1.53997647289283
O           1.29319595116890    1.74709697532613    0.82583747940529
H           0.16942713299874    2.04962103091041   -0.09448019439044
H           0.82783632360017    1.49495168909091    1.64713887018437
O          -0.45897598491655    0.78172371007825   -2.74205669803940
H          -1.31548730018493    0.49753105122383   -3.06654363275809
H           0.03288237411548   -0.06455781804938   -2.44138492331251
N           0.67069820708070   -1.36193797189922   -1.82036424946286
H          -1.76844498574899   -0.25706182338741    0.66289010233585
H           0.74301336419380   -2.20189435495346   -2.38101459676686
H           1.58870928768517   -1.16329924260106   -1.43741863506460
H           0.08875997916516   -1.57283719021770   -1.00702203767846
