    23
        -45.35160177  Gyration_radius:  2.39788334242 Dipole_moment: 5.938
 S           1.52047489485090   -1.41963493747155   -1.07753736274917
O           2.22073719378299   -0.80067675065922    0.01031696430735
O           1.72732729670957   -2.80701806176694   -1.28815496474458
O          -0.02023231531510   -1.13588888841596   -0.87722636729096
O           1.75320932998613   -0.64013115838909   -2.38504775544186
H           1.49801002537655    0.30371911079257   -2.18620282787890
H          -0.30753344507309   -1.42035074401990    0.02736295890232
O          -0.69395381969071    1.93572862606102    0.29868172304589
H          -0.78399078070168    2.82006489304134    0.65662257375361
O          -1.19595626671041   -1.74583440489760    1.39509725442558
H          -1.58342485411299   -2.62115201247132    1.33564075242541
H          -1.87509185204573   -1.10654082428410    1.06540506985534
O          -2.60315587791092    0.01713046984911    0.00352856045518
H          -2.34018510632136   -0.35054852007148   -0.84443513606598
H          -2.02265576499644    0.79284859026590    0.13158365710026
O           0.84582250645262    1.74116296293223   -1.89831950785809
H           0.24882316000056    1.93013400077586   -2.62535134927360
H           0.30533525155432    1.77642932958981   -1.07550441501800
N           0.70629693160343    0.52520472462468    1.96380783820310
H           1.38933984301700    0.10310291476439    1.32993696818105
H          -0.14248640848219    1.40291816252481    0.97848665484132
H           0.13952540212784   -0.23461113022915    2.32325350128312
H           1.21376469594087    0.93394362745451    2.73805519955115
