    23
        -45.36786414  Gyration_radius:  2.49223085811 Dipole_moment: 2.719
 S           1.90464461907257    0.56155994763511   -0.60858462608138
O           2.29595583963548    1.37591071547612   -1.72002593403278
O           1.01257465789881    1.23435833427855    0.33283119274510
O           1.39319991168779   -0.76252617538810   -0.95037244703839
O           3.24760139073838    0.25518180890795    0.22936413866352
H           3.87367684514057    0.89995033359764   -0.08729845135984
H           0.26673915356657   -0.06552148303634   -2.05691623453267
O          -2.38778885535045   -0.20461723858244   -0.89226082895616
H          -2.86331181294420   -0.80509734285164   -1.46852264126598
O          -2.95437573904023    0.89664398889681    1.69107129387578
H          -3.00441197582345    0.62961815874902    0.76149495627247
H          -2.93307759575266    1.85474668720469    1.69611894408513
O           1.47598486152652   -2.10947816167620    1.31088571266765
H           1.52756972371457   -1.76418492615894    0.39164145246151
H           2.27528915201918   -1.79355074953144    1.73663375586668
O          -0.35842770640156    0.59237853742579   -2.41142893083828
H          -1.70531235290598    0.22213756957807   -1.46116159464823
H           0.17411649721086    1.38894630179020   -2.49415845198554
N          -0.66129537116593   -0.50323058525938    1.22886374251224
H          -0.00126268075502    0.28600794979602    0.91529210571924
H          -1.23505526743508   -0.73453727609325    0.40068532059683
H          -0.03996844410268   -1.29080483602622    1.50355264615150
H          -1.30306484050623   -0.16389153873679    1.95229487911889
