    23
        -45.35899005  Gyration_radius:  2.37895982641 Dipole_moment: 4.954
 S           1.83827780690206    0.20467838515660   -0.04456780692101
O           1.26056959750372   -1.02392237775276   -0.51740218901149
O           2.69433503173077    0.13665270607038    1.08613951832135
O           2.56413775338764    0.89408730280312   -1.22354879326537
O           0.69349100402718    1.20041137507952    0.30224047979735
H          -0.02416630925405    1.18533166110906   -0.39676931249615
H           2.03139864050904    0.66081882887259   -2.04100074135789
O          -2.77173014294802   -0.21533979718386   -0.01231702189188
H          -3.19152368532333    0.29543803669198    0.68181885252760
O           0.86422867997335    0.01692226386888   -2.94776893436741
H           0.87765797009887   -0.79169043112776   -2.41405146823504
H           0.03231128340335    0.45830471534042   -2.71390382163390
O           0.71174073542238    0.03167423616502    2.99135992505867
H           0.50371366124905    0.96799034770993    2.99696468727243
H           1.52891902755815   -0.04420942009441    2.47557277579164
O          -1.18211939854038    1.17392798620319   -1.47824094236676
H          -1.60024786202799    2.03079815572014   -1.58529963112577
H          -1.84485641580709    0.59194457535579   -0.98147275311597
N          -0.95443344529559   -1.61711522919245    1.23439896556610
H          -2.11245044286973   -0.82831184805579    0.46089109345645
H          -0.19969599946403   -1.66358725051197    0.55352425731780
H          -0.57324680540586   -1.10330591901275    2.02862185672024
H          -1.14631068481479   -2.56149830323359    1.54481100397473
