    23
        -45.36666004  Gyration_radius:  2.3883656229 Dipole_moment: 3.571
 S          -0.52332766093351    0.04553407163829    0.89518789821601
O          -0.62988635703318    1.47980395764235    0.70654168765559
O          -1.59314354122933   -0.69628933597401    0.29852536901265
O           0.82711581751889   -0.41778709265232    0.34914217595258
O          -0.43013414228917   -0.28300475268862    2.38558068007237
H           0.50926469949694   -0.02685339232100    2.68379169298056
H           0.78802768437164   -0.50829748956297   -0.76192958663347
O           0.57035061095110   -0.59298668387365   -2.08335727491672
H          -0.07195409903981    0.14681687326583   -2.21556388871380
O          -1.36380529997668    1.20598587736708   -1.85444983088948
H          -1.13121308637446    1.52786061454892   -0.96467945406745
H          -2.15092188924499    0.67109315753569   -1.72169564958596
O           1.52231257234323    2.73178992304823    1.63331958441983
H           1.96167799224077    3.12046000216474    0.87486278211574
H           0.65684516167041    2.40447188552864    1.31327371291996
O           1.99459695639257    0.37847450292209    2.77835460125665
H           1.96041580426314    1.32617553095482    2.51441154007392
H           2.34194081207624   -0.09694024295222    2.01637089041313
N          -1.11869770764201   -2.60143275816139   -1.80120895865656
H          -0.76382125479219   -3.49779109999623   -1.49378580163276
H          -1.88838057933190   -2.77389478602122   -2.43549173816611
H          -1.48433273176101   -2.11361579577107   -0.98318559736638
H           0.01707025826973   -1.42957296671979   -2.13401483449741
