    23
        -45.35164451  Gyration_radius:  2.56485293182 Dipole_moment: 3.681
 S           1.25984703622698    0.74175115765525    0.08637141912506
O           1.74207333018845    1.49390836050084    1.20848542296571
O           1.50247164718694   -0.66766140981402    0.09992104393388
O          -0.22404941967355    1.03209116825375   -0.15323132580747
O           1.89194409312908    1.31675532813702   -1.21667875277164
H           1.98915364607144    2.29050686697960   -1.06072594496126
H          -0.83253219354062    0.77418950200946    0.65493765649691
O          -1.76593388877390    0.41799175879144    1.71115734664020
H          -2.53743427167617    0.98060132975838    1.61255976316441
O           0.57775183492772   -1.01365239955393   -2.49070711658788
H           0.64719097083482   -0.18016842507905   -2.95828443701502
H           1.06135531402749   -0.89065903545269   -1.66235561296562
O          -0.28464049866521   -2.78373517500623   -0.40571281008175
H           0.42607203506268   -2.26615453463809   -0.00368873078495
H          -0.27619832783528   -2.51574615382671   -1.33238195082842
O           2.15202003525372    3.68429180245788   -0.17484616103687
H           1.97511689736480    3.11302157869921    0.59955274357046
H           3.04906034664447    4.01249998664333   -0.07497627648248
N          -2.53467706727619   -1.98767063135868    1.09657044280799
H          -2.07023729283343   -0.53949061718324    1.49629479073873
H          -2.62623170658819   -2.60139380395195    1.89621102462113
H          -3.37404795860491   -2.07642663403680    0.53759079351273
H          -1.74807455138985   -2.33485001007809    0.53393669194412
