    23
        -45.38060764  Gyration_radius:  2.25775736917 Dipole_moment: 4.756
 S           0.68360573516926    1.13626260559819    1.36295440578886
O           0.12371849475335    0.42740227256218    2.48812896634863
O           1.72129561527843    0.42222886142966    0.64683705630622
O          -0.35290911683185    1.61569696508018    0.43824899465933
O           1.35751167422918    2.43872571512388    1.96915115893597
H           1.01485499672499    2.42064134790066    2.85613186872154
H          -1.53337310418525    0.62993348161627   -0.00995000680517
O          -2.19545811946359   -0.01243901787350   -0.38048722048123
H          -3.02756481483786    0.46092718234929   -0.42137662293956
O          -0.99263015151780   -1.78679027994042    1.48510922894206
H          -0.60622145964313   -1.06050327954104    2.01367254313558
H          -1.65898683079723   -1.36583805556705    0.92676279463319
O           1.08282129945292   -2.03885392123631   -0.12620894635685
H           1.52408840915471   -1.23197432988543    0.21279858290424
H           0.35116729513213   -2.19131934290889    0.52077522905322
O           1.07802808921656    1.44495638293050   -1.74983138248781
H           0.46784751914025    1.74035829168984   -1.03968349497862
H           1.84790397232480    1.15625899995770   -1.24036496682378
N          -0.19119607186394   -0.85370071035623   -2.02735430706410
H           0.36484788770147   -1.46160838929904   -1.30479030276381
H          -1.11218711530914   -0.64972425767732   -1.60035598766122
H           0.33617265527970    0.06923983317932   -2.09281875965017
H          -0.28333685910873   -1.30988036512998   -2.92734881141832
