    23
        -45.35001126  Gyration_radius:  2.45372109949 Dipole_moment: 5.844
 S           2.05169575315621    1.29927004159415   -0.62841650887686
O           1.79967825870065    1.06492142193558    0.76369761824251
O           3.31822377214927    1.78984866444479   -1.02200309684441
O           1.74186738571007   -0.03476843017723   -1.39607541969224
O           0.95324576732571    2.24917696156480   -1.19733724816133
H           0.07184342121809    1.90947712866711   -0.91503046836816
H           1.36883861568930   -0.72542251121913   -0.76930068589358
O           0.67218642873318   -1.91610411876040    0.02309822831944
H           1.33060731083738   -2.58703843046723    0.20729689599618
O          -0.92538331021378   -1.03656058295834   -2.00865729305402
H          -0.54818485514502   -1.56441233108187   -1.28361447778241
H          -0.17677663151548   -0.81949161232885   -2.57290990396827
O          -2.51246397884753    0.25600655064682    1.59666883454017
H          -3.11315586581970   -0.39764457964628    1.23457302243082
H          -2.13169425441759    0.73055144800536    0.84038145112917
O          -1.45586441042429    1.23710021364669   -0.80374645957961
H          -1.32683071119936    0.36595758994049   -1.26964133945377
H          -2.02549560228360    1.76893030362230   -1.36364840321339
N           0.15088189176689   -0.71888203518676    2.22052630199647
H           0.42729156631676   -1.48094618074607    0.94187006519447
H           0.39378868402101   -1.08496904690881    3.13113464246942
H           0.74773808344883    0.08223935927273    2.02198839278927
H          -0.81203733920454   -0.38723984386036    2.24914585176868
