    23
        -45.35775278  Gyration_radius:  2.38773093402 Dipole_moment: 5.955
 S          -1.95090064756333    0.90658605471415   -0.72058378813648
O          -1.42644668361507    0.84602543752237    0.63260155461607
O          -3.12342863921228    1.67500475400810   -0.90706494882233
O          -0.82608062488324    1.35613890523675   -1.66415850828071
O          -2.23258814560455   -0.55455038712654   -1.18105610691286
H          -1.40264009033651   -1.07886939613048   -1.06389002243900
H           0.09671362064115    1.51593682964691   -1.21413220934860
O          -0.08466257407177   -2.01525811818312   -0.74684090849263
H          -0.30265327127099   -2.94151615166463   -0.86592398037092
O           2.23331521090924   -0.75950676458996   -1.50240015903881
H           2.25244292810196   -0.68071300465262   -2.45782704403087
H           1.43058671109301   -1.26459296263958   -1.27943945585471
O           0.71403284605444    1.69969687633949    1.96798139006300
H           0.59232914695653    2.59034002002128    2.30088945525274
H          -0.14504802820809    1.43065908066214    1.58432862052077
O           1.44300976164588    1.65681863421533   -0.63022064951582
H           1.88375687224149    0.81361393095570   -0.87159838262933
H           1.35067656527156    1.66176513143773    0.34509422587653
N          -0.08036951241318   -1.40000918208015    1.77561383127590
H          -0.02601782228557   -1.85045421862617    0.25864053911999
H          -0.42934963327742   -1.99367484114146    2.51700744731954
H           0.78056918984724   -0.97086931183786    2.09364821812586
H          -0.74724720002180   -0.64257130609607    1.62933088170418
