    23
        -45.37405592  Gyration_radius:  2.35671248909 Dipole_moment: 2.561
 S           1.56292799837567    0.99694763161024   -0.49680796554066
O           0.95702563932805    2.29597853318318   -0.33003521532289
O           1.54304939341940    0.17595752576287    0.70234189609166
O           1.02176509274962    0.25521776193885   -1.63580739631046
O           3.09020193871148    1.27602597701838   -0.83327832599486
H           3.08222924939249    2.21680544924018   -0.97679728630691
H          -0.58794744368338    0.03349244512319   -1.66309002902333
O          -1.52731587043032   -0.24054880511036   -1.51265591593152
H          -1.77906330774298   -0.75115430393866   -2.28424884933124
O           1.10986965330361   -2.38494496470003   -1.04825151612926
H           1.13346757889717   -1.44870741914969   -1.32288693427490
H           2.01379424858134   -2.69338855871678   -1.11673853916929
O          -1.76744880449349    0.18162236417062    2.65725092266687
H          -1.16547316076587    0.52318899051247    3.32072435124229
H          -1.79234754248986    0.86653138550452    1.94508880474476
O          -1.52169525342069    1.75914379265372    0.53369039345014
H          -1.84924657467712    1.29362449165049   -0.24371268618078
H          -0.62562121028835    2.06893949024505    0.29417429584450
N          -0.59618069846722   -1.31520690140608    0.81559492371111
H          -1.10014662562481   -1.05234542958096   -0.05778213956102
H           0.32561902444973   -0.78190090392845    0.79315202071227
H          -1.13108005801724   -0.96405525501194    1.64929157216154
H          -0.39638324713343   -2.31122330711071    0.81078359845941
