    23
        -45.36765284  Gyration_radius:  2.40258702037 Dipole_moment: 3.964
 S          -1.39700666686997   -1.49519473328544    0.27088545084234
O          -0.38022451469152   -2.11355113839790   -0.55416432711750
O          -2.42706943289621   -2.33732508935894    0.78337886224348
O          -0.57091021717797   -0.99069736198556    1.59212639107686
O          -1.86613108681448   -0.23972238611550   -0.32619597754950
H          -0.95477603339867   -0.00467454611296   -1.68977564037195
H          -1.21598426857055   -1.10810094361905    2.28199064447196
O          -0.16259358594978    0.03922231995135   -2.27473341013491
H          -0.00159867308128   -0.87688544631996   -2.52053452207165
O           2.27401340678684   -2.13353934312801   -0.26033827001924
H           1.30754550699513   -2.23995205970818   -0.38827421732147
H           2.60807601441544   -2.99869967048238   -0.02364939529142
O           1.03343501119196    2.91747512530916    0.55561059905168
H           0.98567225230562    3.55430382149707   -0.15942678158049
H           0.10609228887339    2.70535002531947    0.79921166568479
O          -1.48866261038470    2.04680255072164    0.91431349763617
H          -1.64408675394276    1.18316380298924    0.46673441716534
H          -2.29088892038532    2.55347800855178    0.78162986777693
N           1.24073652613569    0.32009354986892   -0.04273093157675
H           2.06227903696273   -0.29697099435015   -0.04376516818619
H           0.57420508043702   -0.06677806051005    0.63892899035619
H           1.42872484564211    1.31938208845381    0.19926781449832
H           0.77915282444479    0.26282049070642   -1.00048953958602
