    23
        -45.35352018  Gyration_radius:  2.3819031118 Dipole_moment: 7.465
 S          -0.30329987548544    0.36854128665341    2.35953947584114
O           0.82047099452745    0.84672760918301    3.08213359057864
O          -1.32690174255328   -0.37190986566515    3.01980950122187
O          -0.95432661503974    1.57066704940867    1.59072888961027
O           0.18656752098500   -0.53707349169577    1.18022559790551
H           1.00053889230753   -0.15821387288098    0.74731947407379
H          -1.78101674446255    1.13558507958167    1.19962382854762
O           2.27471225131788    0.26560678415022   -0.15117435466440
H           3.07267445190108    0.04350466938363    0.33148238636594
O          -1.22011576613495   -0.31890968877046   -1.60420559118830
H          -0.71572307844510    0.51024419332350   -1.41100531148295
H          -1.83035808939279   -0.09488431235327   -2.30950754320046
O           0.14793458725491    1.88199915073185   -0.96048176925976
H          -0.20832434257019    2.10270604398654   -0.08821152229585
H           1.05290447583196    1.57959853470554   -0.80765235348427
O          -2.71122468127656   -0.00933889574235    0.67647334312411
H          -2.20201787623254   -0.35189812911325   -0.08671670663032
H          -2.50974322306834   -0.56482050686938    1.44304507244534
N           1.43847611306585   -1.67359425807774   -1.72423106822934
H           2.09258112319751   -0.47261667997157   -0.81296511478131
H           0.45909226150148   -1.39296783228509   -1.70662724452503
H           1.71707211142672   -1.77992428337083   -2.69155444440614
H           1.50002726138161   -2.57902859434142   -1.27604814560702
