    23
        -45.35704864  Gyration_radius:  2.319930443 Dipole_moment: 7.181
 S           0.80192190659008   -1.81861416363595    0.55296163926082
O          -0.60651029086812   -1.47976196163967    0.52314023911405
O           1.22795456739747   -2.64046180998457    1.62275185753842
O           1.24370805174392   -2.39395294270703   -0.78352032677158
O           1.57113383142463   -0.44158531284360    0.61115793801337
H           0.92414452804631    0.30677661568856    0.67543755281973
H           0.97002837378406   -1.75643528965978   -1.55529006070111
O           0.01517243621784    1.67832994046012    0.75701945330807
H           0.43699234791994    2.30262460000188    1.35106369541669
O          -1.60200816379258    0.17538343653530   -1.32814937560367
H          -1.41212824788346   -0.49878221213371   -0.64751260818580
H          -1.36738673141342    1.02010375796842   -0.93518290708259
O           0.58976889369901   -0.73300720114905   -2.55583843271976
H          -0.32407225741542   -0.44669557082878   -2.33384901735554
H           1.14893083240490    0.05636994572955   -2.40838304298415
O           1.87332822951117    1.43044549769323   -1.52265837032959
H           1.18372864030296    1.78175740790026   -0.94744677624095
H           2.48207698365241    0.95257103090746   -0.95130652288852
N          -1.92844441659233    0.49839015814040    2.06007525796798
H          -2.88319985927222    0.66612640571140    1.76728768822346
H          -0.77558313946091    1.29879322936750    1.26578197252326
H          -1.91391177032139    0.46262647930005    3.07157286014129
H          -1.65564474567239   -0.42100202082364    1.71088730653570
