    23
        -45.36109214  Gyration_radius:  2.33106932142 Dipole_moment: 5.413
 S          -1.20643901442548    1.41888716198204   -0.88083889847066
O          -0.10933356578474    1.10347079242783   -1.77278437903071
O          -2.27180268415167    2.19202470403939   -1.39715050869154
O          -1.76166035308514    0.08842150694479   -0.31381228765555
O          -0.61669341512130    2.10737416345563    0.37917145612741
H           0.36102027131633    1.85931743274139    0.39957417777714
H          -1.16010050113795   -0.73568010698128   -0.50727761524714
O           1.28526373026946   -1.10816644061245    1.42831532288450
H           1.82741821003757   -1.56290614816172    2.07399670985807
O           1.77412183145646    1.24161364603837    0.15922334997504
H           1.76528975490367    0.36243720096238    0.58647689703723
H           1.57818312409687    1.10122380331972   -0.77809749233540
O           0.92218201234439   -1.05548710524344   -2.93320453915650
H           0.52541279662676   -1.23638548903719   -3.78675533079096
H           0.60016850944996   -0.17442552843272   -2.66106797970384
O          -0.25089207828297   -1.89250008454927   -0.68328564602830
H           0.23109221479093   -1.74277983952738   -1.52715648424798
H           0.40107533257341   -1.78254776988111    0.03257926604868
N          -0.86277280004253   -0.00388572274552    2.52019484404298
H          -1.48747325137662   -0.02772926053154    1.71815775784005
H           0.49315769163079   -0.72990936332799    1.91700017357752
H          -0.68098370423137    0.97407794613424    2.71429202966880
H          -1.35623412179289   -0.39644549893326    3.31244915652461
