    23
        -45.34883137  Gyration_radius:  2.44009864323 Dipole_moment: 4.522
 S           0.54628618187985    1.59513618287428    1.50790232924564
O           0.39022359417339    1.36680573336091    2.90476760811672
O           1.63370862525605    0.97389430070527    0.82313983416808
O          -0.78097149132089    1.31076620342495    0.80304210848646
O           0.70851197289154    3.16170041278165    1.30844522503745
H           0.38113987885037    3.57806839525928    2.10301942945267
H          -0.70020608325577    1.25266592872425   -0.22629945562988
O          -2.14209768552554   -1.03246055816655   -1.42112569743139
H          -2.61798615307606   -0.92102663362834   -0.59564344483746
O           0.51455276338794   -1.26859085259892    2.00621955454379
H           1.25314994908519   -0.82609605601674    1.57511766131931
H           0.24922457591136   -0.67741474722711    2.71673407019615
O          -0.78284556798693    1.10683239152806   -1.70438879169076
H          -1.32619199042383    0.24011718513392   -1.69629680278240
H          -1.34878265678505    1.77964312489349   -2.08852011570043
O           1.72755375552154   -0.32958539238619   -1.63989325825877
H           1.02292104064114    0.19829707876573   -2.02966103068521
H           1.92733995924747    0.10348053032365   -0.79909224034715
N          -0.06719291222201   -2.40671032639904   -0.68337264045390
H           0.07606425433595   -3.38775722059002   -0.88331541529094
H          -1.36840561135054   -1.66210335924634   -1.19802813912593
H           0.00274082752794   -2.27376807411090    0.32166372251153
H           0.70126277321343   -1.88189424741317   -1.10441449086094
