    23
        -45.36967807  Gyration_radius:  2.40878746205 Dipole_moment: 7.218
 S           1.29751331478044    1.19647740967345   -1.39285512135214
O           2.09657313552429    1.02880191385952   -0.19020941488922
O           1.58037287457087    2.34804303045888   -2.18681563008057
O           1.66914690707785   -0.06865270850201   -2.34294957050397
O          -0.12555348432720    0.99659405369770   -1.09369216602675
H          -1.23705372059408   -0.12074998711419   -1.41762506800390
H           1.93981146988515    0.38625992900516   -3.13398523017524
O          -1.97055245334327   -0.78654988444093   -1.39418012951762
H          -2.77651967529190   -0.27998460840346   -1.50675850223366
O           1.57159581540245   -1.48204639321937    0.01369192763323
H           1.59507155626015   -1.64557730524891   -0.93421351047993
H           1.84370676081051   -0.53085148211544    0.08092591483078
O          -1.21477653454129    0.18117454527979    2.74551869019989
H          -2.05090699060386    0.58819887136643    2.97625605338987
H          -0.67827026074485    0.89937258104504    2.30853703967678
O           0.05181468655871    1.99165654384770    1.35025961368103
H          -0.17717826115828    1.72718272028710    0.43639652036243
H           1.01353446487914    1.91542995347287    1.35576867429852
N          -0.90216812327326   -1.68651093250780    0.87719144549505
H          -1.46168070124541   -1.41312440012393    0.03075134918779
H          -1.12243870976609   -2.62893665549419    1.17992976342108
H           0.12555960136203   -1.62297347228005    0.58289874678477
H          -1.06760167222923   -0.99323373251901    1.65515857426690
