    23
        -45.37204756  Gyration_radius:  2.39145624738 Dipole_moment: 3.684
 S          -2.08570927917898    0.32022636462064    0.57897121135185
O          -1.21905545463633   -0.81089950166869    0.96099525533081
O          -1.90251419047757    1.42802674794701    1.47794504952932
O          -1.93992605498056    0.63858424841529   -0.82915540670246
O          -3.58335341093438   -0.18898906651496    0.77477766468294
H          -3.88329224671320    0.26773548482021    1.55588061655464
H          -1.26266510271719   -0.87256955341073   -1.73455342283523
O          -0.67031484757312   -1.60543642301355   -1.49823983666739
H          -0.80156575298735   -1.64517261418318   -0.53142792132040
O           2.78684580292762   -0.92890456922665    0.63602331628187
H           2.51649852214859   -0.75134292500665   -0.28937179430478
H           2.58366616870276   -1.85185056407795    0.80000172896679
O           1.65766854904676   -0.47248120171091   -1.78373520485906
H           0.78623499552832   -0.96138373981864   -1.70180569224557
H           2.00018951367800   -0.67499721447891   -2.65501624208205
O           0.44295886912766    1.83665855163929   -0.82865815743796
H           0.94585766522526    1.18273405954694   -1.34499144192713
H          -0.49818417993306    1.58079603053301   -0.91983173713590
N           0.84590666449298    0.70883800969514    1.50033693426644
H           0.72999812638217    1.33896970182221    0.64082294791866
H           0.81294132821953    1.25513723136341    2.35390394938273
H           0.01529700885687    0.05612414164743    1.45321026473894
H           1.72251728581559    0.15019679117271    1.38391788849855
