    23
        -45.37545085  Gyration_radius:  2.39570718405 Dipole_moment: 4.181
 S          -0.74711599692408   -0.65336849522680    1.84492772861644
O          -2.06828422093207   -0.15975222160702    1.46271880305702
O          -0.08880037472122   -1.35939829089350    0.76616402472039
O           0.06697201934796    0.40970508379829    2.41103588849833
O          -0.98229300994929   -1.71188471488567    2.99730075422892
H          -1.41076190439880   -1.19985027403560    3.67648660558030
H           0.42381439733112    1.47646778234723    1.29807793459282
O           0.60444151184081    2.08482662203511    0.52907591963483
H           0.80669325301676    2.94052187803949    0.91057592260040
O           1.80108018413877   -0.67185726480702   -2.63481301742956
H           2.36053980554680   -1.40201129666825   -2.90256943421939
H           2.06173455155578   -0.45515057900811   -1.70478358326305
O          -0.68848983656045   -1.22303435014417   -1.87437546767556
H          -0.49741406587199   -1.56344161602579   -0.98104479511916
H           0.19311793412469   -1.06122258217354   -2.28768213495165
O           2.20402261060490   -0.19342744751262   -0.06075508365982
H           1.48511452285687   -0.72231712418825    0.33418583291986
H           1.95262919303166    0.72494146853191    0.09981225550372
N          -1.50741972048656    0.97880364310971   -0.79834581349177
H          -1.88343778880601    0.55544428403481    0.10544723172915
H          -0.68633775740720    1.54919177165992   -0.52604206549865
H          -1.19098774311487    0.12252035560575   -1.38984562040336
H          -2.20881756418361    1.53429335815549   -1.27555187599747
