    23
        -45.35779763  Gyration_radius:  2.30989416981 Dipole_moment: 5.139
 S           1.69755748107236    0.67198653155885    1.11534026634598
O           2.31639948869281    0.37223408985141   -0.14140750940134
O           2.47239636808279    1.22056589092402    2.16285785267481
O           0.49091484884788    1.64017588121924    0.85239181982433
O           0.98840543321258   -0.60644070114505    1.65483457430192
H           0.60545862962493   -1.15858936290979    0.90733710553444
H           0.07161401665333    1.49138440618651   -0.05409809974512
O          -0.67171471461412    1.30887046671600   -1.41592893049540
H          -0.57347013533493    2.11043730328687   -1.93219926672652
O          -0.24853433929072   -2.04054665628588   -0.08969576031172
H          -1.08478708759574   -1.48463520435862   -0.08920892864190
H          -0.47463390415406   -2.86288402487029    0.34907982162303
O          -2.27337288093383   -0.42810353227838    0.08784578072546
H          -2.01591920620888    0.28512864499429   -0.51182206173835
H          -2.17526620510390   -0.06542600808727    0.99260939937100
O          -1.48941077602639    0.59983954769716    2.48095829819203
H          -0.84676389737485    1.21882558454064    2.10452067862222
H          -0.96991865512647   -0.03833041036125    2.97661346406191
N           0.87835633166672   -0.51642649104214   -2.38844067566899
H           1.64623253226521   -0.28457858866782   -1.75745339722374
H           1.24214463200486   -0.59885827438554   -3.32846699401947
H           0.52541658648112   -1.42021789032279   -2.09610907976715
H          -0.11110456687960    0.58558878773587   -1.87955834753033
