    23
        -45.36040081  Gyration_radius:  2.30697701969 Dipole_moment: 2.910
 S           0.28856853452926   -0.45316489021422    1.57637892444757
O           0.81638769614578   -0.83256414761041    0.29294027605520
O           1.24762885047903    0.05315054836664    2.50163033112576
O          -0.84723285639063    0.59577142516055    1.35941573860187
O          -0.50049497354784   -1.61552700735354    2.18632517280871
H          -1.21390346122785   -1.80105148972714    1.48922901068825
H          -0.62594792330908    1.20183430494274    0.59339376543547
O          -0.12625973337531    2.13461883873509   -0.57988540469228
H          -0.32334395896699    3.05686052971502   -0.40271740455609
O          -2.26816170294052   -1.78216179326928    0.35444325807577
H          -2.02612272245284   -1.17101085232642   -0.39507594411727
H          -3.08109467870373   -1.42830772382623    0.72172560610789
O          -1.64190799684197   -0.15273203448825   -1.63304829039081
H          -1.21987787813350    0.68320531445176   -1.40413666801888
H          -0.93942522928458   -0.68335956130527   -2.06175124728732
O           0.48513689532228   -1.70902172143920   -2.22874688809031
H           0.27222415754311   -2.64015069312335   -2.14165997141456
H           0.75284589845271   -1.41243374299370   -1.34048890494336
N           2.30629390421140    1.62436231647693    0.26259295636815
H           2.60191993524693    0.84443183370226   -0.31310503344643
H           0.85272605348168    1.99770865277441   -0.37415014752018
H           2.09956558536632    1.23048545614260    1.17868870552239
H           3.09047561438895    2.25905643719892    0.35800215922319
