    23
        -45.37305349  Gyration_radius:  2.31407948874 Dipole_moment: 5.954
 S          -1.75866570546079   -0.95086134868275   -0.71657570884930
O          -0.43774961522500   -1.51885396177045   -0.94842685552886
O          -2.84049942223520   -1.57497379932332   -1.40233500642837
O          -2.04571909031328   -1.22042068493932    0.86204756446343
O          -1.71180663599969    0.51107762102293   -0.82004396172020
H          -0.31081394574255    0.89328059305881   -2.44739492472731
H          -2.79393605384154   -1.80171381422524    0.77731110389135
O           0.50224423490829    0.37965755294088   -2.50017894745065
H           0.25916393160006   -0.47056213747047   -2.07535027790771
O           0.05454880608777   -0.43644417898743    2.57379626640380
H          -0.75427031769724   -0.89018656270695    2.30357323489231
H           0.77648024407148   -0.87801558883452    2.05750212199050
O           1.67573374539065   -1.29908556344414    0.69161968376007
H           2.10842988285380   -0.53824327589997    0.28230074241521
H           0.95521259722908   -1.54415879772769    0.07865300809864
O           2.15693678701603    1.20342488578959   -0.64512519422023
H           1.60678576841435    0.89617480478837   -1.41871898124805
H           2.92682757761524    1.63786176403506   -1.01293473152538
N          -0.06952317334960    1.54964930650658    0.88132432117103
H          -0.01558804387460    0.84009460627019    1.68599671897366
H          -0.78492483815948    1.15960038391412    0.17948506414272
H          -0.35054863222967    2.46736952235818    1.20810656125855
H           0.85168189894181    1.58532866329099    0.40536819818701
