    23
        -45.38134544  Gyration_radius:  2.2722973843 Dipole_moment: 3.508
 S          -1.08899910069187    1.30714681078347    0.44393569910287
O          -0.34860307743525    0.74829702705897    1.54868726705570
O          -0.23026717810901    1.75034742894363   -0.65435454627409
O          -2.14107207388608    0.42787663821070   -0.04517853558705
O          -1.80633451144620    2.60690377587048    0.99256138582109
H          -2.32297465143490    2.89254359155713    0.24607211658833
H          -1.95303876177675   -0.97904024262013    0.82144238098276
O          -1.57078037335329   -1.71035309680681    1.35937189547109
H          -1.19627612209986   -1.25071925042199    2.11862770269400
O           2.42478190106451    1.50924758063539   -0.79858176430310
H           1.47669823454917    1.73535261609843   -0.70914823243373
H           2.58507759281370    1.41248339084614   -1.73860905232482
O           2.04496056637134   -0.35017420701739    1.10550576512914
H           1.26483284523831    0.11559135174800    1.47016781265613
H           2.42632264938270    0.29056321221047    0.47254899543350
O          -0.48145000733323   -0.43478874132677   -2.07926813522953
H          -1.42906883195482   -0.55142992418937   -1.95317487269397
H          -0.30995690727975    0.44066740677707   -1.66341363466419
N           0.54490783737483   -2.02472505701649   -0.20119161568094
H          -0.29781658248204   -2.07681784219193    0.44221447676131
H           0.23065686608201   -1.49183006032896   -1.05538246462900
H           1.27800860370066   -1.42308955567420    0.31413427510919
H           0.90039107270667   -2.94405287314342   -0.43696690897886
