    23
        -45.37364943  Gyration_radius:  2.34463271814 Dipole_moment: 3.614
 S          -0.49700317287637   -1.45501051399933   -0.49154802463926
O          -1.39685334580358   -0.41264050244185   -0.95962191361861
O          -1.11255108562859   -2.42938624524881    0.36903112631743
O          -0.07583186420087   -2.27798534101286   -1.81349157675316
O           0.75575832653883   -0.90076250455121    0.00641523723183
H           1.51936888199205   -0.46254007294946   -1.47235497005281
H          -0.64842578741079   -3.03688638900474   -1.76402590021274
O           1.66044312180782   -0.11356116805156   -2.37572141568851
H           1.35537731357445   -0.81483317141209   -2.95560498616984
O           1.01852993337410    1.67902651474940    0.90676969413394
H           1.14634660858016    0.72866022743544    0.74108841387600
H           0.27025344295932    1.72103842642908    1.54338940451761
O          -1.07335474732893    1.38684816119666    2.53757043063371
H          -1.12591184901769    1.68658846335597    3.44649729522720
H          -0.95858545789278    0.40982343284068    2.58035327794817
O          -0.39819448126598   -1.20219260028319    2.60733863116979
H          -0.81135557172671   -1.72698034336017    1.89477812751242
H           0.53722870407234   -1.19737716364246    2.38678147034741
N          -0.04364023453960    1.72674378374466   -1.46212522298256
H           0.39986826663421    1.92836086569496   -0.50472603270450
H          -0.47402077114389    2.53884708735829   -1.88820929710996
H           0.69097823190771    1.28805871603539   -2.05568760887040
H          -0.73842445249023    0.93616034707056   -1.27689616009319
