    23
        -45.34966863  Gyration_radius:  2.38967309262 Dipole_moment: 3.935
 S          -1.35911338203366   -1.64873669602186    0.87365574269429
O          -1.51701970200599   -2.55524790414205   -0.21952020200482
O          -0.11884697812570   -1.61929548588049    1.56810504535121
O          -1.74691200830934   -0.23293756499292    0.42439086060522
O          -2.49284120365516   -2.00120052237227    1.92628085488160
H          -3.23090295208455   -2.36742780819776    1.44255939618315
H          -1.13270610481170    0.42945807930420    0.97548880052731
O           1.13880698194175    2.37092052018949   -0.32236310100851
H           0.99448838794606    3.31067369254253   -0.43704735199935
O           2.38225363540216    0.04078293295786    0.61408158160043
H           2.18566113201967    0.89365891431892    0.20057782286301
H           3.27574603857085   -0.19392442210151    0.36021190228703
O           0.85147204894068   -1.45520676526052   -1.22227608364696
H           0.12447623963833   -2.02888116546010   -0.95540566344250
H           1.30892225851683   -1.18470630593236   -0.40988693087900
O          -0.12218596124884    1.14047019166783    1.70370740520681
H           0.37691930842246    1.66255718120792    1.02997367227892
H           0.43603535117436    0.37546984540724    1.91270783091933
N          -0.34304954178412    1.00148563817073   -1.99012261522258
H           0.58592666376564    1.89864198834548   -1.02755363336247
H          -1.25561024197122    0.87580056998827   -1.56687410628249
H          -0.47431530065665    1.19067333972750   -2.97573614084266
H           0.13279531034966    0.09697175656078   -1.90495508672667
