    23
        -45.38062438  Gyration_radius:  2.25472412493 Dipole_moment: 4.376
 S           1.79152531580396   -0.43577710252436    0.43809118907688
O           1.86691631623340    0.32330816974999    1.66155166092151
O           1.67638034120170    0.40257003651226   -0.75005798645222
O           3.16739808449686   -1.21435369988674    0.30796380530510
O           0.76554237839827   -1.47425803571888    0.45774101892113
H          -0.70497138609417   -1.15696985364971    1.01152660411919
H           3.77427869572149   -0.59020345191038    0.69107740370633
O          -1.64316464938205   -0.92653439902110    1.24300245171827
H          -1.96611015971015   -1.64690062024923    1.78606978891377
O           0.21909422218778   -1.30161302388727   -2.11924030802348
H           0.87790343761688   -0.59076555876880   -1.99592087091069
H           0.34555980404315   -1.81159332350226   -1.30044543872149
O          -0.31828631851779    2.16258868361279   -0.63700573860691
H           0.53334731135951    1.69432913620823   -0.76271886787478
H          -0.43059458088570    2.18579720853502    0.34527333206412
O          -0.47952088790348    1.57419999835599    1.92874658828756
H           0.42828211719542    1.21381255188952    1.98027875976797
H          -1.06050025206609    0.80227813824950    1.93720995654727
N          -1.80727532327675    0.15313797262161   -1.25977620689619
H          -1.09869843418073   -0.47950589013791   -1.74374019555411
H          -2.02854141075691   -0.27040488095232   -0.34234585466948
H          -1.27018181064093    1.08645065906481   -1.05697640744125
H          -2.63838281084966    0.30040729540781   -1.82030470419175
