    23
        -45.37031987  Gyration_radius:  2.33078013364 Dipole_moment: 3.384
 S           1.75410445381182   -0.26625399773417   -0.32948065688007
O           0.71391930605761    0.52345745355098   -1.00892808354713
O           3.04090824820176    0.34976725328109   -0.38384949598139
O           1.30092200267580   -0.26973852352474    1.22245365824512
O           1.66622212709433   -1.66578591793227   -0.71061503374097
H          -0.57127601216159    0.19389163940889   -2.01942051298693
H           1.35133068703381    0.67374295594123    1.44279220194676
O          -1.26287665501403   -0.25056527031556   -2.56225157477962
H          -0.90349400032291   -0.30379658185906   -3.44927833585619
O          -1.32771402435965   -0.92605266461721    1.63968928621682
H          -0.37040296760924   -0.86074066792095    1.78629356434931
H          -1.61542533572625    0.00131177228198    1.55400886270177
O          -1.47436491196024    1.81100978560806    1.53295475439944
H          -1.73100526498348    2.41550945385266    2.23112290254230
H          -0.61820519195614    2.11518657110126    1.20349823255672
O           1.21805072625213    2.37379550620616    0.72729906052156
H           1.00759581019870    1.84192684183688   -0.07466284482999
H           2.12653920166658    2.65935455040065    0.60317139441389
N          -0.88203016194509   -2.11026869124118   -0.68592089496134
H          -1.17616045867335   -3.07713453354852   -0.77054110432714
H          -1.22542467160074   -1.52145917588904   -1.48086156569847
H          -1.21073121763784   -1.68319932227633    0.22844925090182
H           0.18951829216489   -2.02395843600957   -0.69592306495080
