    23
        -45.36692920  Gyration_radius:  2.3859513023 Dipole_moment: 2.489
 S           0.02200696025274   -0.52699003794733    0.80680870372602
O           0.98762271930094   -1.38013317089451    0.13908807501095
O          -1.34396240938189   -0.89644339782446    0.58978511013675
O           0.30398659171916   -0.51258037946593    2.30976053053193
O           0.27044571306923    0.91437240204605    0.36979550908713
H          -0.18800619676341    1.10218236039817   -0.61343978300942
H           1.27236577767795   -0.25191882059863    2.47545796694385
O          -0.81312513159196    1.16950071517598   -1.82180556152677
H          -0.68559415936188    0.24943363988198   -2.15650562083148
O           3.06023086251595    0.28408182526809   -0.02146269165626
H           2.40159370352439   -0.43155991048616   -0.12018823428902
H           2.61626224091683    1.08722162906315   -0.30661521593453
O           2.77870791949515    0.05492899034767    2.58215985101704
H           3.03266990037384    0.23387726457832    1.63909950050583
H           3.25274801937611   -0.73790395305939    2.84382494801955
O          -0.53743159028382   -1.46244144066109   -2.07555025916221
H          -1.33773532070295   -1.77624479443936   -1.64519308511643
H           0.16496564443646   -1.60017006771996   -1.41691165879562
N          -3.19302774330911    0.90882622258307   -0.69585559355823
H          -1.77133516335997    1.21041110361444   -1.53277969172600
H          -2.77055052411012    0.20920528221781   -0.08594320368071
H          -3.52958009868662    1.66399109523173   -0.11236827033526
H          -3.99325771508656    0.48835346267890   -1.15116130535128
