    23
        -45.37488770  Gyration_radius:  2.42044269014 Dipole_moment: 7.728
 S           1.65612551736047    0.43267954207561   -0.19427710110094
O           1.14359556838148    1.27392991203435    0.87279724745902
O           1.66126511191848   -0.98215318563373    0.14745857122643
O           0.91327610861480    0.66998695578293   -1.44007940239963
O           3.14510904775094    0.82639988877934   -0.46326103109905
H           3.07196240155631    1.77545870620499   -0.68213812103723
H          -0.53383725994820    0.09016102520090   -1.54246171959079
O          -1.45375792144354   -0.30588762553213   -1.54542912875432
H          -1.78888165404760   -0.17729428919624   -2.43412661565390
O           1.94306934883096    3.14255827492369   -0.92787116081024
H           1.41176980216338    2.57323296230297   -1.50176997496855
H           1.57366358974612    3.00592387233870   -0.04421813583155
O          -1.83953525725746   -1.51578749885646    2.29705840161623
H          -2.77342881563875   -1.58069798887640    2.50201171558985
H          -1.68137317462062   -0.57259780836271    2.02363747983085
O          -1.45509367451683    0.79742030748630    1.12779979732070
H          -1.66181619372328    0.62178093722657    0.20143510335042
H          -0.50421978492912    1.04006433123133    1.14515999583645
N          -0.57893449254551   -2.25668030295281    0.08769355943392
H          -1.07559580866099   -1.70828641656947   -0.64373513844111
H          -0.48276273839073   -3.23484422250866   -0.16057561697446
H           0.38947992314660   -1.78924129578229    0.16764334176364
H          -1.08007965375881   -2.12612606123139    1.00724794322610
