    23
        -45.35779768  Gyration_radius:  2.30978950792 Dipole_moment: 5.143
 S           1.56629664034082    1.22659423715711   -0.78602759211404
O           2.33511745560566    0.24199584637470   -0.08489491860978
O           2.22774809931915    2.23395714422443   -1.52521186161422
O           0.58323232886964    0.48424061891774   -1.75804895644602
O           0.58979384188343    1.91922529259688    0.21154640478796
H           0.26079210641935    1.27714904164699    0.91136241170281
H           0.30518834715370   -0.41901430931175   -1.40216606988583
O          -0.21596686455152   -1.80960027965090   -0.91804954082474
H           0.08830510257801   -2.48355148379738   -1.52788559511786
O          -0.53607199023579    0.38846839173129    1.94938375904862
H          -1.26623113769906    0.07624750847088    1.33497049804999
H          -0.95494147556512    0.96831363821535    2.58829403491157
O          -2.29307734654913   -0.26941207533046    0.15692798854799
H          -1.83276699241308   -0.96681494746299   -0.32922881574869
H          -2.29560930900935    0.51184640127117   -0.43412299993788
O          -1.77864828986655    1.88616002362227   -1.42034938678839
H          -1.45206032576302    2.62293631373801   -0.89762866739679
H          -0.99596261214548    1.50235509386810   -1.84222068951626
N           1.17997436600270   -1.94485088276659    1.25299927942423
H           0.29833943403582   -1.94759293685050   -0.04118042859938
H           1.85721766988599   -1.25255732859598    0.93121270293711
H           0.64989502089999   -1.50792351136205    1.99793940177829
H           1.67943593080525   -2.73817179670808    1.63237903142466
