    23
        -45.35575873  Gyration_radius:  2.30547136293 Dipole_moment: 5.060
 S           1.72105619796063    0.15269750847942   -1.06390430965013
O           1.52745064158355    0.58246933142124    0.30314673978375
O           3.05522462407209   -0.13228812636535   -1.44395910059152
O           0.80385478437095   -1.09764984771170   -1.28786453036641
O           1.08162632587096    1.16756595309288   -2.01511059905026
H           0.16654869219652    1.40090247760059   -1.64866412805735
H           1.03513363992446   -1.74379495970106   -0.56383581675514
O          -1.26755710240503    1.65536615843015   -1.12406368625513
H          -1.81708863161746    1.93844466128959   -1.85751697658749
O           1.43474233464377   -2.46164177824923    0.82293345053238
H           0.80509649219583   -2.04583695245895    1.43714968093797
H           2.30772102940009   -2.14366689190647    1.06656372480177
O          -0.39155602067768    2.25056357628740    1.57280527251887
H          -0.88135838866198    2.31446689767974    0.74568240632241
H           0.49863149990636    1.98986375603165    1.30984844372861
O          -0.24396059282370   -0.59355927693497    1.91489590228041
H          -0.60091448923457    0.09753440734976    2.48299842508559
H           0.39658645865510   -0.11468657688661    1.34775682099407
N          -2.00149742590947   -0.73409272212826   -0.38383751401739
H          -1.60566507606161    0.73703474825166   -0.83358219981287
H          -2.96076934029866   -1.04292262085324   -0.29509383304411
H          -1.51367592925076   -1.35903640064565   -1.01446341553694
H          -1.54962971385130   -0.81773332207886    0.52811524272855
