    23
        -45.34952963  Gyration_radius:  2.61250692005 Dipole_moment: 4.247
 S           1.79764728166689    2.19665224013047   -0.58374899988536
O           2.76876380562743    3.22511607726427   -0.69549109122071
O           2.14883993075617    0.96579441209558    0.04569884430857
O           0.58518191937693    2.79713751967407    0.29443765357519
O           1.13081273125651    1.94825042117136   -1.93322449451601
H           0.38265677759087    1.23451375501353   -1.79794449568701
H           0.58982777402717    3.73048451502937    0.09635716740476
O          -1.02503791668425    0.53246351110289    1.17984185407487
H          -0.60291593778846    1.39218519290036    1.26525557051005
O          -0.60626298512215   -2.37809096338188   -1.17850122484003
H          -1.33090018998487   -2.25835841275320   -0.52522415051499
H          -0.98819743945675   -2.84494928908320   -1.92310909708048
O          -2.46545237213984   -1.80147258454694    0.70635030203608
H          -2.23252149591233   -0.87374353385410    0.86316472802260
H          -2.31450342966091   -2.25385729432965    1.53830760720068
O          -0.69992426806315    0.31857265739820   -1.47137541774539
H          -0.47011482725318   -0.63272899405952   -1.51514822090423
H          -0.93120780079840    0.47117593611821   -0.52556294847884
N           0.90639139509829   -1.28481475637677    1.28598761760195
H           0.73834868329641   -1.96405414981907    0.55169128012228
H          -0.30337753847725   -0.14173819381165    1.34434490461828
H           1.34404871980867   -1.76408960386802    2.06229791563632
H           1.57789717283109   -0.61444847203854    0.91559470575395
