    23
        -45.37799603  Gyration_radius:  2.38317776556 Dipole_moment: 2.391
 S          -1.17945877653946   -0.65867107066927    1.62629692690379
O          -2.00695689957810    0.51168726325823    1.39824898915876
O          -0.86814803688298   -1.38182835356494    0.39713619457352
O           0.01575940372137   -0.35756623542014    2.38920272298228
O          -2.04710149384038   -1.66089614348025    2.49392483606721
H          -2.28605442692059   -1.11991469817493    3.23916919109303
H           1.09031362568908    0.78081771528695    1.72261633775929
O           1.58722605401363    1.24749863831906    1.01501133978559
H           0.90486283687337    1.74199803153172    0.52690303715075
O          -1.12773084970310   -0.02723009255996   -1.95751318658504
H          -1.03806920931476    0.84415392942199   -1.53874423941939
H          -1.23595090629242   -0.64192347752739   -1.21103796154608
O           1.27797617115457   -0.56776643173913   -2.86404207254835
H           0.31203412527566   -0.42134093246715   -2.67549498013523
H           1.59155798920036    0.23366486961855   -3.28561883583697
O          -0.72669050943543    2.08409184474174   -0.19811991839142
H          -1.25282394279563    1.51668773341999    0.42762046284346
H          -1.14254440727815    2.94784401118047   -0.18009617468765
N           1.65358263940017   -1.03234170775803   -0.26995989398809
H           1.81116012261794   -0.08737937889391    0.20597260234003
H           1.65726388823626   -0.91352625504067   -1.31662869793865
H           2.33213854118518   -1.72080495939697    0.03492063360806
H           0.67765406115747   -1.31725429008834    0.02023269678875
