    23
        -45.37477341  Gyration_radius:  2.49084069846 Dipole_moment: 3.108
 S          -0.72054194073812   -1.14128061882592   -0.16263522922657
O          -0.35193214117510   -1.50885098224661   -1.53263098420002
O           0.33500614499021   -1.45617689602072    0.78809177980297
O          -1.09523074489496    0.26476787046086   -0.09342377604809
O          -1.95838247814406   -2.00592696579986    0.24276348384322
H          -2.52787477440730   -2.01984463615810   -0.55428373186303
H           0.12051349728054    1.28531423466958   -1.56625660490644
O           0.86851209905783    0.79808458987142   -1.93248948994940
H           0.51216699718244   -0.11297801996786   -2.01144524373672
O          -0.79971180642781    1.74164277403717    2.03686493320544
H          -0.92693811322792    1.11175256331678    1.28589693696707
H          -1.41307276790476    2.46056387266481    1.87523557960750
O           1.80174378981747    2.10089483601085    2.17658590737462
H           0.81160358985133    2.05380870960970    2.13411421708972
H           2.02999339170803    1.82708171203729    3.06679025276973
O          -2.81356567500943   -2.01500684587238   -2.26556479521559
H          -1.86177172028977   -1.77890358114333   -2.26366433115041
H          -2.87619258658885   -2.88193794192596   -2.67265087223048
N           2.20725476859146    0.26056135568439    0.29200223383307
H           1.51746211011574   -0.50535809266370    0.58147778410349
H           1.83799662225640    0.59804208305489   -0.64113780650107
H           2.15469801072940    1.03117035258646    1.01151252599828
H           3.14826373721553   -0.10742036338806    0.20484725044090
