    23
        -45.37060172  Gyration_radius:  2.4541799204 Dipole_moment: 2.798
 S           2.11385854863793   -0.19981512718614   -0.23419642369691
O           1.82004620935747   -1.50978040048315    0.31128353924195
O           1.54958500487436    0.02749777783606   -1.55158057969520
O           1.76087410253940    0.87655031463309    0.69277822867311
O           3.69257884681522   -0.14789295193047   -0.41594726584079
H           4.00034622964522   -0.71826353450557    0.28144228935838
H           0.76359067849246    1.93169728915703   -0.15203163973259
O           0.11729649428274    2.24526135807474   -0.82550852503307
H           0.50795191652676    1.92782728374440   -1.64796706682835
O          -0.11159573945136   -0.61054921331249    1.80057211632866
H           0.47794374910645    0.16508121935548    1.80139059886803
H           0.46828246245029   -1.27411200655896    1.36930417252328
O          -2.94027044907768   -0.11055216359713    2.10900746244296
H          -3.44875332176790   -0.21356379334579    2.91397455859865
H          -2.03651291450404   -0.38471090125802    2.31628528699287
O          -0.63655551824846   -1.24233937213812   -2.24769755779624
H           0.25010495909311   -0.88717458835102   -1.99788719472906
H          -0.64409757895032   -1.28553203871902   -3.20474978961023
N          -1.57294112380633    0.28801726047903   -0.27644907376713
H          -1.04731114328172   -0.14466086144260    0.52916093929289
H          -1.06602313350787    1.19121740899525   -0.50887867557752
H          -1.48488106545621   -0.35243027902884   -1.09301032802749
H          -2.53351723377630    0.42822730966664    0.03070492803652
