    23
        -45.36727171  Gyration_radius:  2.33883274366 Dipole_moment: 3.830
 S           0.09171937918791   -0.61163122812944   -0.93429817069335
O          -0.50210103687356   -0.09303470360834    0.31329100169035
O          -0.86484726292249   -1.28757969511139   -1.76598047491263
O           0.63347578156526    0.64900868108433   -1.69533044344490
O           1.28388679790566   -1.39990997397349   -0.62639599976800
H           2.07586506123314   -0.98140230979381    0.46208460316507
H          -0.16344674653812    1.08723801643510   -2.11162721178035
O           2.46444210209139   -0.55891709526293    1.36188248120760
H           2.23921246402174    0.42485930388514    1.23455669061059
O          -2.91401961100229    0.16031638148142   -0.97485182393862
H          -2.46815399837057    0.33857949644622   -0.13852419668027
H          -2.39365373575506   -0.57990001166430   -1.34644196390156
O          -1.54025808146578    1.64380361596496   -2.67124705628645
H          -1.69345589685180    1.22960968485294   -3.52352930604184
H          -2.19528436538858    1.23200800770371   -2.05064508198203
O           1.36674887971726    1.67510223342709    0.81007478673826
H           0.54518357204062    1.14549042029221    0.67742019268346
H           1.59266176392201    1.99898981405016   -0.06693900744505
N           0.43440103844248   -1.25081874396539    2.69457799445805
H          -0.15956620067585   -0.91280695076081    1.93021990415102
H           0.17497249930111   -0.77114541113486    3.54660211035468
H           0.27197384749964   -2.24190351424453    2.81394718366388
H           1.72024375897815   -0.89595602795974    2.06115377805184
