    23
        -45.37493164  Gyration_radius:  2.39741086649 Dipole_moment: 1.888
 S           0.50124759798760    1.02204384002809   -1.49514636789330
O          -0.69229161735471    1.38143969722104   -0.74010093961522
O           1.70722171062885    1.09012118500719   -0.70597855595994
O           0.32973378290796   -0.26417798426569   -2.16432490458620
O           0.64551038186515    2.11309584960744   -2.63627946076815
H          -0.21508176493639    2.13284605616223   -3.04542689651203
H           1.17555250635912   -1.29623972250993   -1.04305314400982
O           1.44809098685399   -1.63513254550339   -0.16787797961686
H           2.13021280299631   -1.02325509308089    0.12458569288290
O           1.31758466366489    1.20734096189727    1.91341255291759
H           1.93405366502908    1.86999752140882    2.22739210494656
H           1.41941631788216    1.19338583695476    0.93694520286020
O          -0.90935965632671    0.25596706688816    3.14492502511400
H          -1.46247422105035    1.03079649321052    3.25913351814904
H          -0.04279850226586    0.58784157214483    2.83578151136691
O          -1.81295165820197   -1.83541266318292   -1.65744149288042
H          -1.09312152407683   -1.23339297706487   -1.93457946375102
H          -1.67912620761157   -2.64534529311208   -2.15163860302712
N          -0.96068417617938   -0.80811657335518    0.68479215272766
H          -1.64114472020428   -1.39689762263950    0.18913819757896
H          -1.15111071772852   -0.63246964517710    1.69227583231114
H          -0.01021884850295   -1.23537542928116    0.55424254563001
H          -0.93826081172963    0.12093946863965    0.17922348212964
