    23
        -45.36727162  Gyration_radius:  2.33897156669 Dipole_moment: 3.837
 S          -0.61151323462436   -0.35535575334752   -0.86656936579639
O          -0.11665377116253    0.56446570983880    0.17606517950903
O          -1.33349841577697    0.32199820547093   -1.90755881711064
O           0.67032630247866   -1.02042924011232   -1.48028775308315
O          -1.34270132408007   -1.45986530436396   -0.24799342314995
H          -0.87973133929748   -1.92725283024826    0.99944776203008
H           1.06832333366722   -0.34230091600743   -2.09851649836380
O          -0.43483305152557   -2.05096145670245    1.96133156030055
H           0.53613159047016   -1.82055028376216    1.76469234963222
O           1.55792617137290    0.86169403728665   -3.00907375545805
H           1.13038211737396    0.76887239660660   -3.86351265952288
H           1.12117953228473    1.63808746154634   -2.57307819219422
O           1.74110887683764   -1.02891382991573    1.11143263833983
H           1.17171201652981   -0.29504385687769    0.77923801665746
H           2.07350263295403   -1.45854423956784    0.31771583671362
O           0.02404985317447    2.56604494119662   -1.70165506095582
H           0.22706596534216    2.36666361989323   -0.78033291516814
H          -0.69246571043726    1.93338636577154   -1.90987885421583
N          -1.22052184767843    0.21997624437284    2.73452687728164
H          -2.21820624784796    0.36082270759621    2.82205241785033
H          -0.80553532505486   -1.16693296220214    2.45047235149602
H          -0.91343969196201    0.61114069789372    1.83775027752658
H          -0.75260844288200    0.71299831545497    3.48373201765954
