    23
        -45.34801739  Gyration_radius:  2.37266317805 Dipole_moment: 5.039
 S           0.94879164082472   -1.60407046025434    0.95975600428606
O           0.39394517511646   -1.41802788407581   -0.35951604034746
O           2.25405575268007   -1.11500121311490    1.21054291415050
O          -0.08855744831955   -1.32976346468127    2.05137265167637
O           1.06887258236146   -3.18268231351867    1.14107623638437
H           0.22745510841034   -3.58840554827272    0.93699012091646
H          -0.79757414814852   -0.63068107152776    1.84297219875790
O          -1.77571481488460    1.96729137820666   -0.36998437870323
H          -2.57515000349398    2.38780869514451   -0.68926834534529
O          -1.99887575513678    0.35096998281336    1.76659959486310
H          -1.75466953863481    0.94863699997296    2.47740466693754
H          -1.94124534877465    0.88294626793980    0.93959240889547
O           0.64405449228281    0.99956380229165    0.88275132055102
H          -0.02036444661226    1.57277304890281    0.47907040392953
H           1.39437623217043    1.00109168735473    0.27095745554489
O           2.40335299908590    0.30276166777004   -1.18982918636002
H           1.74120183091241   -0.39711611279417   -1.08984045169628
H           3.10972907756730    0.05014229521575   -0.58852336152740
N          -0.63009723924444    0.52267245568909   -2.25730670959562
H           0.26436372002343    0.93357263781833   -2.50114250837756
H          -1.05383771212398    0.17659557699062   -3.10914264158507
H          -0.42090489928937   -0.27910598485735   -1.66487338731363
H          -1.39320723590214    1.44802753734591   -1.13965897603994
