    23
        -45.37711607  Gyration_radius:  2.34792811311 Dipole_moment: 6.904
 S           0.07543071067725   -0.23759449105408   -1.44671455935354
O           1.01324064234462   -1.16476745343976   -0.82091256653622
O          -1.26863762311104   -0.37085134616079   -0.91213492886106
O           0.56010836107953    1.13748397765236   -1.34977545901894
O          -0.01112182206661   -0.60787227611400   -2.96657003443261
H           0.91027725003029   -0.47239063278810   -3.25996487110304
H          -0.46580679079403    1.94490270134179   -0.37798842978817
O          -1.22742652450908    2.15737065027188    0.21947196752348
H          -1.95266341383556    1.67409434689327   -0.19089245508757
O           1.65337060103469   -0.54341573738839    1.60378038353764
H           1.45940215278160   -0.73752622142797    0.64667384206751
H           1.81656156311307   -1.40160509108575    2.00101180016984
O           2.55939679324593    0.00164293482007   -2.75784355332252
H           2.17515867126634    0.78160417778498   -2.32937747142295
H           2.56889157539466   -0.67044891546101   -2.06434129223124
O          -2.01403920468649   -1.49092854698939    1.31447621159511
H          -2.94686325099638   -1.67978233125704    1.20083221147103
H          -1.69022244037434   -1.20514396440047    0.42275091433305
N          -0.64769100127467    0.59017910536513    2.24655230331147
H           0.32955030151207    0.21540902512692    2.07222615277460
H          -0.86204206228427    1.31647530744370    1.48675237184905
H          -1.29629278080018   -0.21783732056032    2.08439603466678
H          -0.73858171773894    0.98100209143486    3.17759145784258
