    23
        -45.37457418  Gyration_radius:  2.2370164993 Dipole_moment: 5.321
 S           1.45055427628328    0.06821838707554    0.46381866677446
O           2.19500337186501   -1.04155268447150   -0.10232614088893
O           1.87321407398806    0.52837779178514    1.76109651982134
O           1.28706931039574    1.15753898308749   -0.49801555258138
O          -0.04042074487063   -0.49674504440601    0.68669378336480
H          -0.00407987902827   -1.47204669316320    0.55633513427371
H          -0.04994063275094    1.79604671900208   -0.27865703647999
O           0.49051485961579   -0.94708977444930   -2.17698315680641
H           1.17119624444660   -0.94722060923580   -1.47345372677839
O          -1.99614967298653   -0.16368520799846   -1.30548122081107
H          -1.12850045000318   -0.43640841003096   -1.67580364356419
H          -2.22072823098081   -0.84436367812573   -0.66735365518084
O          -0.38992796029777    1.60362047966146    2.57123037786212
H           0.52215714391983    1.29832267404781    2.34330694899089
H          -0.77396060830425    0.87776933941900    3.06717849838263
O           0.41785971656122   -3.00603611055895    0.00866706102938
H           0.18998707189986   -3.05381225488814   -0.92513504244963
H           1.32111071412621   -2.63995362328041    0.03258945278003
N          -1.06628972643079    1.98614752019771    0.02129252090934
H          -1.38776716575420    2.90848408198651   -0.25007469169696
H          -1.02158725897706    1.87036998791733    1.06624409635399
H          -1.61226864564299    1.21628427684891   -0.43833810234267
H           0.77295419294073   -0.26226615042216   -2.78683108097217
