    23
        -45.37038523  Gyration_radius:  2.38849104248 Dipole_moment: 4.194
 S          -0.69527616218867   -0.17501794916395    1.04896559829740
O          -0.17789785338993   -1.09516583329641    2.03040844945952
O          -0.15317649208360    1.17194651313677    1.13207124189114
O          -0.54159813249061   -0.71682704412802   -0.31696469966139
O          -2.24884365085923   -0.01041083079995    1.26675672565850
H          -2.58532549293085   -0.92932854441469    1.27317375360048
H           1.06964409580471   -1.34289692520024   -0.11690151788049
O           1.99129276778928   -1.42122237737635    0.18919191333300
H           1.91098632296396   -1.44730015666643    1.14759624468684
O          -2.16587759793501   -2.65413011508354    1.11846634503952
H          -1.83924090071428   -2.69954508351972    0.21495752649067
H          -1.38985603456085   -2.43625584463982    1.66272600871420
O          -1.90806208664314    2.23176928736837   -0.69834871575038
H          -2.82160900695299    1.96646588304936   -0.58306210254915
H          -1.45989044815811    1.95904913146273    0.11636568755663
O           3.14904421466969    0.44843185974963   -1.34608884222980
H           2.85366053134606   -0.33354350543427   -0.82674760049779
H           3.85293964586997    0.85645132262404   -0.83914322008219
N           0.65179006366390    1.35389941374743   -1.33855722588771
H           0.53212817015544    1.65091924714675   -0.34146045139717
H           0.20460597209140    2.02138050246889   -1.96114595830054
H           1.66306407006405    1.14860644480275   -1.53420540478011
H           0.10749801446278    0.45272460410389   -1.29805376569829
