    23
        -45.34737758  Gyration_radius:  2.6604228139 Dipole_moment: 1.849
 S          -1.75438647029064   -0.08463577164775    0.71933188884352
O          -1.71689167081616   -1.13475532057163   -0.26767895414752
O          -2.75949210142713    0.90790689648303    0.54219252305766
O          -1.88737734978386   -0.74352792701554    2.13646389541287
O          -0.36891700498776    0.56505026924401    0.81288380048861
H           0.31050398165801   -0.14184360497314    0.49768665539242
H          -2.76824228512054   -1.16645465895193    2.13070021100512
O           1.29040660667149    0.19439272869279   -2.33927598824427
H           0.42409997224728    0.38332311549618   -2.70348294423910
O           3.41385672192593   -0.05602769737376    0.63126235069071
H           2.65560608396812   -0.65111848280814    0.58973470188810
H           4.03893705426766   -0.37394252441713   -0.02313838963664
O          -4.18344010301489   -1.44145100776697    1.03373144560283
H          -3.70446351898050   -1.78706597576457    0.27191243828293
H          -4.38144540444013   -0.52170566105313    0.82335036309655
O           0.97934325961190   -1.30312498639716   -0.22270141154729
H           0.13172988016770   -1.74985264874387   -0.36463337691348
H           1.18327782678199   -0.84922008964108   -1.09131648879428
N           1.83907000369850    2.11642862843836   -0.58690684106191
H           2.19427402508620    3.05174716253119   -0.73897774915176
H           1.55041450887943    0.99307158853681   -1.79647540338823
H           2.51975569230093    1.60857346531912   -0.02311124388233
H           0.99338028165337    2.18423249239327   -0.03155147268999
