    23
        -45.37922906  Gyration_radius:  2.27257400274 Dipole_moment: 2.396
 S          -1.22409041117352    1.30472488670799    0.56743488390704
O          -1.70503591277221   -0.02350362368294    0.94433144084191
O          -1.15387648293491    2.22890522755547    1.66014446315631
O          -0.00389670312600    1.21568599353544   -0.22476906263577
O          -2.30862127151668    1.87126193329416   -0.46943642865558
H          -2.96638600062401    2.26771448037234    0.09359646935304
H           1.62426906109197    0.96210008024390   -0.90004011339901
O           2.28978912957143    0.37288702060343   -1.29837044913425
H           1.88658357849704    0.07939459883207   -2.12200426552336
O          -0.52409450245970   -0.13978409833455   -2.40417483043788
H          -0.37941256393378    0.44106684048530   -1.62129158328640
H          -1.34204932196569    0.16437821164023   -2.79979320310243
O           0.41321377352848    0.08437419986700    2.51668467353292
H           0.41919788825053    1.04418342110419    2.59614304101529
H          -0.46878261622245   -0.10048513262165    2.14041623698727
O          -0.67418414555778   -2.02009760818456   -0.45166455274918
H          -0.63790000183234   -1.57820531408585   -1.32211514646734
H          -1.19750951757394   -1.40020307569613    0.10459207692378
N           1.62066773145723   -1.37290463890189    0.60761499060593
H           0.71603646700845   -1.77370859681295    0.17570420336079
H           2.25161770636493   -2.10281034553856    0.91868833051551
H           2.05617467101646   -0.75140847502196   -0.12299300352839
H           1.30828946491590   -0.77356598537201    1.41130180871902
