    23
        -45.34565426  Gyration_radius:  2.40247788959 Dipole_moment: 2.891
 S           0.16395860152547    2.31779781836744    0.02155296082840
O          -0.09565222158397    3.70612703640010   -0.12382252729863
O           0.17733506539829    1.72892323348935    1.31508679653074
O          -0.74295394243552    1.48927030002900   -0.92296694003351
O           1.57616239765985    2.03972852280194   -0.65841035058732
H           1.67013453401201    2.74367085344402   -1.29540141939920
H          -1.50545938102080    1.03422943672833   -0.39756467653765
O          -1.28338990231745   -2.01465654104754    0.37006950966027
H          -1.62460176372355   -2.79221416175153    0.81263950880338
O          -2.59894369473997    0.22766671042169    0.20622320716956
H          -3.28877869383676    0.09807828711812   -0.44924896745385
H          -2.15251630209098   -0.65806453225849    0.33183163822234
O           2.50235129517527   -0.77435332174664   -0.55577741361476
H           1.78873657424930   -1.02625611561039   -1.17178187645247
H           2.51327643780020    0.18691913237566   -0.55725998467319
O           0.11570045681129   -1.08000194543030   -1.89136267739858
H          -0.16332298113815   -0.16323108202753   -1.78495988034746
H          -0.38291564710479   -1.58682077072884   -1.23351007677582
N           0.73193246752612   -1.08882404010262    1.67241358264931
H           0.51994173633617   -0.09859688717391    1.77935239610488
H           1.52948799327477   -1.14737195772241    1.03438568696669
H           1.01891607674813   -1.44996903303296    2.57257106392350
H          -0.46939912620002   -1.69205093256030    0.92594047980722
