    23
        -45.36531878  Gyration_radius:  2.38839736098 Dipole_moment: 7.424
 S          -0.75883333621881    1.79644854463064    0.54091241115213
O          -1.69858462386317    0.67913771008399    0.28602390578715
O          -1.34449911624266    2.91561714702921    1.18521133948077
O           0.43849264592885    1.24600230350616    1.20191595533437
O          -0.26748980551152    2.24766042770692   -0.89373723187003
H           0.20399665084367    1.49318906886275   -1.28648545853493
H           0.83617142417760   -0.23761635209566    1.74923806347896
O           1.05505140038667   -1.19266131623262    1.89916984950297
H           0.70087999698934   -1.40851271173972    2.76264062550713
O           1.25869475558617    0.21786367269411   -1.95526093042881
H           1.61511321706308    0.57178728466628   -2.77129484883026
H           1.93830505162010    0.40169378901761   -1.24793737841081
O           2.76100637284432    0.78458652871884    0.09462512849316
H           1.97350319129499    1.15368757174466    0.56007455147768
H           3.04783448222414    0.04732001321855    0.63932617808213
O          -3.08445105601449   -1.65436871360247   -0.40165211727672
H          -2.87367113854623   -0.75209732614237   -0.11636344997155
H          -4.04019590713317   -1.70920464894101   -0.43149815656853
N          -0.33318312478861   -1.35953185729922   -0.38106411993884
H           0.25397564360489   -1.10583008834622   -1.18218001587032
H           0.24783261658773   -1.59719145611981    0.44981755207509
H          -0.90485532252861   -0.46453645334666   -0.09557188239294
H          -1.02509404832294   -2.07344312808238   -0.60590996028614
