    23
        -45.36133046  Gyration_radius:  2.31230894091 Dipole_moment: 4.945
 S           0.38051000346995    1.30055759879167    0.13927825678582
O          -0.80157937444995    1.26306514755846   -0.67749992241612
O           1.49844326128792    1.98835512731760   -0.41721491237803
O           0.07625393906667    1.80418112137404    1.53793538567809
O           0.80572135012286   -0.18767237268218    0.44598375878798
H           0.61701954532961   -0.77672979362164   -0.35605788211140
H          -0.68733851869396    1.19583542320260    1.94689803540969
O           0.38153345674241   -1.56678785034688   -1.65669155220284
H           1.11077401344005   -2.16647238227356   -1.82889754997623
O          -1.58918772908354    0.17780595307664    2.44289048323977
H          -0.96010128928358   -0.44949308704160    2.85483667186833
H          -1.94986985808025   -0.28207183908987    1.65185162405923
O           0.67066070647093   -1.17099827129708    3.05112547464292
H           1.22864216920437   -0.62973220763721    3.61300209483838
H           0.89971914644277   -0.94927193348934    2.13591542810948
O          -2.13093167216904   -0.91258318920720    0.04728803200970
H          -1.82227965912436   -0.07795200851062   -0.35410529858715
H          -1.63131920623754   -1.60718321601285   -0.38975705115841
N           0.83919814658932    0.68002592159171   -2.92622297692747
H           0.51035096418849   -0.77029278556124   -2.26558744460197
H           1.33277669185788    0.84096035791559   -3.79654912550541
H          -0.08481767114688    1.08900810125703   -3.00820344229514
H           1.30582157407597    1.20744619468558   -2.19021810726580
