    23
        -45.35634462  Gyration_radius:  2.3484302846 Dipole_moment: 6.054
 S           1.64443869571373    1.21356462057953   -0.77236587396175
O           1.13785723416508    0.85009226819417   -2.07508308127652
O           2.74509987555254    2.09560771955920   -0.69169738023598
O           0.45526860770984    1.80329220599685    0.04796696839527
O           1.95031137380078   -0.10118240246125    0.00318585723842
H           1.68813637971463   -0.87640372471409   -0.59770836725778
H          -0.39549328017637    1.51298522320905   -0.43570156546729
O          -1.36829386307275   -1.61432329813898   -0.50247701433838
H          -2.10679933928171   -2.21463783863847   -0.39417049009198
O           1.06921254734397   -1.79603801251915   -1.67755493474967
H           0.14892440171871   -1.89994787498101   -1.36392614181716
H           1.06509099128558   -1.05829202456653   -2.30611243115726
O          -0.88102034736940    1.64454139233389    2.50733242413583
H          -0.27121393613295    1.85955746129247    1.78752448862478
H          -1.57080905590010    2.30987631794882    2.48516869489258
O          -1.45331341313738    0.92656950215337   -1.36788003688497
H          -1.56387879890999   -0.00667456759264   -1.08216080357807
H          -0.82157306117438    0.91140920728717   -2.10172769527407
N          -0.26851510389777   -1.11726347794238    1.80696145675762
H           0.69225150184630   -0.89534505010201    1.56399398927883
H          -0.97823367276594   -1.45221191531631    0.42707981878753
H          -0.24955801761823   -1.82460772903959    2.53089835226049
H          -0.66788970971987   -0.27056800246386    2.20845376592427
