    23
        -45.34561545  Gyration_radius:  2.63906495164 Dipole_moment: 1.026
 S           1.73512257054465   -1.63995213020736    1.52012213573348
O           1.92482727584174   -1.59413365159191    0.10677680235687
O           1.88765278910505   -2.86900772487978    2.20815666710862
O           2.76866862041954   -0.59354688203999    2.14478274309734
O           0.38294032903205   -0.99612036554697    1.88202977398626
H           0.41274838819480   -0.09004328113477    1.40775905342141
H           3.00577312491918   -0.93087948744616    3.00560784254146
O           0.34354146563189   -0.19705558932106   -1.61853425395869
H           1.02976482131787   -0.82724858238668   -1.35577610668191
O           0.77082812845805    1.13928424230446    0.58795160245134
H           1.72181861128711    1.24032862724069    0.67312878659077
H           0.60434951951190    0.76789005001231   -0.32953658578878
O          -2.04315151193422    1.83048100161529    0.06360931009094
H          -1.77048078997450    2.08555785598475   -0.83559166610530
H          -1.25449245735569    1.94124593784344    0.60190929087454
O          -0.94124260811382    2.11082964166327   -2.47223925411920
H          -0.36406529987980    1.34190252105400   -2.34669112731535
H          -1.50172688224439    1.91007333729536   -3.22300487080939
N          -1.84748243982347   -1.00351665902577   -0.36996967349529
H          -1.54649271369284   -1.45198848395725    0.48709302571107
H          -0.51277131486403   -0.58905384631800   -1.27509764383176
H          -2.63521737469515   -1.52130888389220   -0.73686564609253
H          -2.17091229166857   -0.06373764723521   -0.12562020584178
