    23
        -45.34971261  Gyration_radius:  2.46514530095 Dipole_moment: 3.188
 S           1.21159889921360   -0.45129147967676    1.35046082737892
O           0.10328796144111   -0.66346654651207    2.24430013283719
O           2.50328497734608   -0.79997192107483    1.83427879633651
O           0.91824930931502   -1.28985249184148    0.03722623921934
O           1.17324190523773    0.97085355599497    0.80138132911608
H           0.21747673341469    1.36849080203561    1.04291001132548
H           0.95772781810943   -2.21724334335476    0.35940560505867
O          -2.16531057190116    1.18009902439383   -0.94592270576744
H          -2.83049991607231    1.80211844916519   -1.24463718659038
O          -1.14234187298745    1.58940285443141    1.44307126590065
H          -1.18116490243667    0.78370672560114    1.98055945290772
H          -1.64851686428919    1.41505200781305    0.60545255350452
O          -0.70071862814512   -1.04101143649971   -2.32313326124604
H          -0.09754750125078   -1.23337964147415   -1.59614014266088
H          -1.48339646722148   -0.65364919547246   -1.91781266101004
O           1.15049453306712   -3.22115104315504    1.78724072244746
H           2.01157921489159   -2.88980000840790    2.06890855998093
H           0.50508775356111   -2.78627303065146    2.35678880682878
N           0.19915447475411    1.71199557371365   -2.03184138831920
H          -1.30778717989788    1.43750506232791   -1.39973374035770
H           0.85268053583310    1.62776500435149   -1.26047879306744
H           0.27161059708380    0.86340726038805   -2.58781039736972
H           0.48180920092878    2.49669384790571   -2.60447403644818
