    23
        -45.37141023  Gyration_radius:  2.31756618974 Dipole_moment: 2.492
 S           1.76534861072157    0.41898113290134   -0.09639787255432
O           1.23842078734803   -0.77149560816640    0.57273583708882
O           2.61000946976341    1.23066628866069    0.72981131405794
O           2.71047332715750   -0.15528476751012   -1.26811767878545
O           0.70788211935772    1.14584511313777   -0.77894580738110
H           0.94817716466946    1.68573384256743    2.09757214618664
H           3.58438451632615    0.14849205996781   -1.03870120906988
O           0.21951673708470    1.06779610585443    2.21676969184836
H           0.54006097015300    0.26023229051949    1.78051115995938
O          -0.86790134648639   -2.28700819970814    0.28480263291325
H          -0.00663455934777   -1.82142212689495    0.40552768156945
H          -1.16042558222200   -2.53133125544396    1.16448937860254
O          -2.23765776700840    1.62040848386012    1.27418449999822
H          -2.21434990082565    2.56461476034296    1.10893571959940
H          -1.38554362853147    1.41044839271296    1.72101017485429
O           0.28429730030630   -1.31977796375960   -2.32662753197349
H           1.09144554343500   -0.85801301701653   -2.08304443904018
H           0.24995760231236   -2.11249289550945   -1.78531837773187
N          -1.65031022748591    0.05642643827320   -0.80902918173168
H          -2.10566527812747    0.64183912254244   -0.06849757222600
H          -0.66903520728444    0.46339423471401   -0.92999387370013
H          -1.51811545106351   -0.92444100282124   -0.47176415176736
H          -2.13433517044881    0.06638859033019   -1.69991254023200
