    23
        -45.34959298  Gyration_radius:  2.39632795833 Dipole_moment: 5.253
 S           0.76126639694023    0.99596493523480   -1.83330114487887
O           1.15222666103215    2.32237544028203   -1.50291590245488
O           1.23988781922581    0.37595348037858   -3.02436384740569
O           1.17230922898678    0.08669342371918   -0.60885397284125
O          -0.78547476732698    0.87219445948842   -1.81788065612582
H          -1.09912890600694    1.53177656314607   -1.08908880230021
H           0.85175525251875   -0.80758290735397   -0.85990069390927
O          -0.92491146601876    0.66810336037983    2.01537484232118
H          -1.68627889752748    0.68384996978089    2.59761095370696
O          -1.11929749431981    2.48017192136345    0.06839306943467
H          -1.01125605462042    1.88648194027571    0.84978692511313
H          -0.25369810027459    2.86572166676906   -0.12479422238005
O           1.78641876232184   -0.48806240439494    2.11348210067516
H           1.94586992697245   -0.19503564924826    1.20999768068923
H           1.13463983445428    0.12757939579763    2.46507767738389
O          -0.00792626642268   -1.80684759286815   -2.00198681606346
H          -0.86290691216372   -1.37558829058368   -2.10814735460465
H           0.54481003349671   -1.42932011058116   -2.70423100038787
N          -0.61496728371536   -1.88980241532378    1.20635451851301
H          -0.59385519624853   -2.18638738761586    0.23776034353407
H           0.34803112843010   -1.86292521449599    1.54021224720913
H          -0.87649699187782   -0.25052751403233    1.63753598304270
H          -1.10101672783932   -2.60478706008013    1.73387807170856
