    23
        -45.37154236  Gyration_radius:  2.36987002507 Dipole_moment: 5.505
 S           0.90807361228165    0.12449509056967   -1.16061913542026
O           0.33929372585953    1.33775599416664   -1.73363476270353
O           2.16141305500549   -0.28138621442845   -1.72645594819311
O           1.23203691324737    0.54604382168401    0.38752364727457
O          -0.08855283197124   -0.91816407613609   -1.00152235749516
H          -2.20331131445969   -0.06352953143441   -1.72240440882244
H           1.91344546007896    1.23914064519918    0.23887974401138
O          -2.18451104319667    0.83686025463140   -1.38389471176552
H          -1.28351527921780    1.16211141563104   -1.64007611188702
O          -1.62341790387356   -1.87460572874044    2.06629990381337
H          -2.21856325439658   -2.47871242765167    1.61870147624186
H          -0.71114627238257   -2.15849865680108    1.79713216831523
O           2.83135115053387    2.16838510842122   -0.88521451140460
H           3.05434419508261    1.34339553758673   -1.34850799491809
H           2.08325263751258    2.51956530269330   -1.38414809765108
O           0.72127810173314   -2.40674258758150    1.00065129743556
H           0.46488975689025   -1.96188378436396    0.16083839213459
H           1.52426091851563   -1.96785252544729    1.28733904023196
N          -1.39741654200443    0.58175254361537    1.10529912016312
H          -1.84623797081303    0.68239916670872    0.13422940557278
H          -1.59111742067559   -0.38468491451488    1.50509627754248
H          -0.37331170020061    0.64356352236887    0.94656276736562
H          -1.71253801355785    1.31059204384219    1.73792479016954
