    23
        -45.34864488  Gyration_radius:  2.59910268002 Dipole_moment: 0.737
 S           2.15722887608330    1.07089855185532   -0.02664555776415
O           1.81910644351331    0.93751505629860    1.36411743323681
O           3.08144853974588    0.16103689907554   -0.59459871918629
O           0.86152790918718    1.08907619447133   -0.85035721576243
O           2.72976210693957    2.53219405000484   -0.21904899795053
H           2.32853452205677    3.10950313961193    0.42915100816516
H           0.12905759882170    1.50309638867425   -0.20051354757695
O          -0.68112113477551   -1.32130556896003   -0.93026310456610
H          -0.24961398136946   -0.55221355018065   -1.31990829486550
O          -3.40715931453472   -0.84375779122339   -1.59739828893518
H          -2.49015358760131   -1.15275370746727   -1.56600033764800
H          -3.89072049215254   -1.47456852038735   -2.13148311130237
O          -0.65288398268077    1.94093574887967    0.91253205192829
H          -0.02066303438250    1.67749043066914    1.59674022950233
H          -1.38867658703895    1.25382396420505    0.94942946418816
O          -2.28576161787830   -0.06297563861861    0.87494091112788
H          -3.07361043371740    0.01841299282052    0.32435452841857
H          -1.69771884898337   -0.64885809265665    0.35301319209861
N           1.43133860786784   -1.90452094444466    0.61513994421241
H           0.02371192876036   -1.73546773647055   -0.37310476919994
H           2.18133006340934   -1.59491540332550    0.00442146699107
H           1.38626474285263   -1.21517711237741    1.35805226145909
H           1.70877166588072   -2.78746935047528    1.02742945345762
