    23
        -45.36225748  Gyration_radius:  2.34054472555 Dipole_moment: 9.638
 S           1.58632475360606   -0.86706404748914    1.45015051936377
O           0.22737888518792   -1.35688537840137    1.78072370447683
O           2.63014189513816   -1.73558887652907    1.86952121461900
O           1.57255322787910   -0.80981192979282   -0.16080410488680
O           1.73362044538999    0.53472647842594    1.82004510583379
H           0.81868275634388    1.63677338217937    1.32164706801532
H           1.03389296778769   -1.57046093541409   -0.46336618898331
O           0.14389499695148    2.31993041497582    0.99419173079275
H           0.31595171478199    3.11053135447162    1.50680470712297
O           0.63327390970380    1.34746598248132   -1.52867077244728
H           1.20843002934529    0.64814670351364   -1.16967384296201
H           0.48027151891710    1.93930876606588   -0.77297093973450
O          -0.13941932628306   -2.42273527844789   -1.38996891185667
H           0.25444158535336   -2.72533768586685   -2.21027659801040
H          -0.73666347400843   -1.68636328725251   -1.61164212147255
O          -1.52408348299136   -0.06538364866755   -1.81926679770228
H          -0.69735554464854    0.50552705283745   -1.79764964923158
H          -2.04235987794701    0.23398442915784   -2.56692254092790
N          -1.53712887871991    0.20707999534078    0.94325687200838
H          -1.72391414556559    0.00434042729455   -0.04991965833565
H          -0.75570351607189   -0.53357693065078    1.33411487777291
H          -1.09828134865037    1.14406424369291    1.02510251141991
H          -2.38394908152703    0.14132875807753    1.49557381510269
