    23
        -45.37871392  Gyration_radius:  2.32961325625 Dipole_moment: 4.106
 S           1.04026499497628   -1.56813275541407   -0.33978620439628
O           1.33486156233876   -1.47986945485046    1.08613915515362
O          -0.33461503692679   -1.89517397317705   -0.62822916224721
O           1.50737181380760   -0.37110504777957   -1.04132035681123
O           1.90819714524859   -2.77136448526224   -0.90041661228565
H           2.80050368307337   -2.56108796662561   -0.64180540170439
H           1.73904323015253    0.81177504212321    0.13306915464510
O           1.70645137503921    1.18418263050398    1.04271710179965
H           1.84795500361469    0.39018779896037    1.57822638119688
O          -0.68636855650464    0.01163511394602   -2.47203944752026
H          -0.98888634734137   -0.82327429061126   -2.08594335444474
H           0.23734964607306    0.04856786690163   -2.15902975166206
O          -1.17829981083315   -1.13760280247917    1.77460962715647
H          -0.21988118270640   -1.33880342455158    1.81716186801157
H          -1.41769750741094   -1.54900031189076    0.92988759311110
O          -1.81260493276170    1.97065871797099   -1.15733462856574
H          -1.46438654583668    1.20874634283811   -1.70109761904445
H          -1.53155864822666    2.76321618742511   -1.61712423883846
N          -0.91104677231471    1.44153364222547    1.28757363679617
H          -1.31625595198610    1.68928540538529    0.34402212270713
H           0.15131510875006    1.47858859631923    1.22427144570715
H          -1.26001553454752    2.06832403959973    2.00446976359321
H          -1.15169674592158    0.42871311874185    1.52197893753471
