    23
        -45.37878049  Gyration_radius:  2.3296878866 Dipole_moment: 5.073
 S          -0.68565779233084    1.18089162165394   -0.41876704926852
O           0.64922316098970    0.86300431873220   -0.96519686802430
O          -0.65557445022101    2.30767586569640    0.47742129365019
O          -1.60573884642513    1.51888542442389   -1.61751872669533
O          -1.22856035229139   -0.01736209278263    0.23619664716766
H          -0.42188240465049   -1.22128512788573    1.12056579499226
H          -1.31757923986416    0.88628095776106   -2.33047183592992
O           0.23177560989854   -1.90900986404164    1.37857187838441
H           0.15247500940276   -2.58229614549829    0.69649445790742
O          -0.47825781182074   -0.27415474015906   -3.10818761862492
H           0.29247017266429    0.03322069550937   -2.60607512068817
H          -0.75229107368651   -1.10576644269132   -2.67422319250433
O           0.77811622577514    1.90604838652028    2.61503940492670
H           0.14072410195861    1.62651957967927    3.27524859951030
H           0.23924848371919    2.20142420162206    1.83749887636862
O          -1.33209852322040   -2.12690294351675   -1.31218212556304
H          -1.35605771176897   -1.33495250889491   -0.72270509926758
H          -2.24214081807151   -2.41134285014912   -1.41047121439184
N           1.95847627145873    0.08052596781361    1.11496958695153
H           1.63835424768389    0.78260452925885    1.83860985952512
H           1.48280147095696   -0.83779574115578    1.30811488691494
H           1.54344132660816    0.42998205747511    0.18943662714540
H           2.96873295321424    0.00380485064467    1.07763093754116
