    23
        -45.34693400  Gyration_radius:  2.60628142974 Dipole_moment: 3.618
 S           0.32147832694853    1.96593274690777   -0.94054250596365
O          -0.06890908295497    1.93338132319270    0.43743602215384
O          -0.63868531558472    2.38864393105214   -1.88866958354285
O           1.61135471620417    2.85485738697815   -1.05919504518337
O           0.85640828812633    0.56139198751742   -1.35930131883149
H           1.65203034881572    0.41809028405499   -0.77429882233132
H           2.24980830546989    2.53147186655276   -0.41266465953000
O          -0.41487179775178   -1.58489576780661    0.13752234948101
H           0.10221141910271   -1.59635969530735   -0.67128713086310
O           0.89833979495157   -0.07727042905090    1.97022771946362
H           0.44363148640739   -0.77859564460214    1.45691989185925
H           0.38636893541314    0.72427239733973    1.77871718874181
O           2.75101605327038    0.66388807208955    0.36025192629655
H           3.52357705195353    0.09586227281074    0.40494678472316
H           2.13616330542556    0.37002798132257    1.11083651036085
O          -1.81770888117009   -4.01610839696212    0.26531187353919
H          -1.91331056450461   -4.23585835892851    1.19296150214802
H          -1.30754889529899   -3.19098005705178    0.23536079548011
N          -2.24946521633697    0.25780113402996   -0.49373342117177
H          -3.19319201346080   -0.02073191943670   -0.73611617985256
H          -1.86943569116709    0.79961473183503   -1.26228566314250
H          -2.29860657253592    0.88632072047200    0.29906482041671
H          -1.16065398127377   -0.95075655710653   -0.05146304423524
