    23
        -45.37027730  Gyration_radius:  2.39100172886 Dipole_moment: 7.030
 S           0.34986485745012    1.03369289772023   -1.92932217006227
O          -0.91172677538916    1.08164909846859   -1.18911491588781
O           0.26817253235871    1.49773921416093   -3.27530276920584
O           1.30250595853156    2.10323855963875   -1.16564204382114
O           1.01909494046071   -0.24853658790826   -1.73166218378949
H          -0.34554881215405   -1.43228699138044   -1.68960336130107
H           1.27717893143501    2.81298303616148   -1.79839229680014
O          -1.00040845275152   -2.57604139597909    0.97065236347666
H          -0.50003128137042   -3.38017797553813    0.82360700137202
O          -1.31410113348465    1.61721368288503    1.29538687431849
H          -1.11537026953786    1.50587602316908    0.32648290368566
H          -2.27104659420935    1.62636791499637    1.35652355783359
O          -1.27244681721773   -1.55285622120820   -1.41899365903297
H          -1.20888016999818   -2.22182298020626    0.06026359021232
H          -1.57146411604171   -0.63229059430796   -1.34344004050098
O           2.23497133809590    0.08737086906345    0.51557722530724
H           1.85316861932209   -0.14777303863450   -0.37020028175949
H           2.37909688684929    1.03587568501157    0.44945016853141
N           0.16639793745541   -0.44926716204600    2.04790215821243
H           1.05667785734410   -0.26422049865819    1.48808410200287
H          -0.47911871624712    0.36586106853146    1.85933836373803
H          -0.28649023052269   -1.33171061726975    1.68049880289597
H           0.36950349962805   -0.53088398666333    3.03790662056694
