    23
        -45.34382362  Gyration_radius:  2.61873066098 Dipole_moment: 4.744
 S           1.63711720443514    1.92394770139204   -1.44419805262436
O           1.72646417476149    2.64869330087199   -0.22086162454538
O           2.17634332980191    2.45519547528194   -2.64201420117282
O           2.38679063647958    0.52197052475259   -1.19467996949559
O           0.18644197893470    1.45782302991397   -1.66403090387376
H          -0.22844926730835    1.42636718078372   -0.72035951965964
H           2.77626548734999    0.28481967386896   -2.03354779393459
O           0.90512476301508   -0.84804346715604    0.85421459519498
H           1.72344485507125   -0.53692731924678    0.45684132839869
O          -1.01996508117175   -1.58441597640174    2.73167588900235
H          -0.20966346250377   -1.37144050977172    2.24565891614554
H          -1.01952772257471   -2.53330695463122    2.86446630319390
O          -2.65342945473733   -0.49926161248873    0.76056497118458
H          -2.38895503087446    0.42484038844548    0.79052343628756
H          -2.25303268922353   -0.90140733932935    1.55115630137007
O          -0.45327357050424    1.43945115314491    0.76900734482692
H           0.20698154185523    2.12703038067999    0.93604418568547
H          -0.01793645355395    0.58145601398127    1.00465477722120
N          -0.73483800916688   -1.46376966570209   -1.12210095425030
H          -1.58615315686214   -1.22437237190265   -0.60370639209689
H          -0.88193768916663   -2.36271728604805   -1.56237782319323
H          -0.62614479861895   -0.76797439550816   -1.85052499001721
H           0.34833242454858   -1.19795791493519    0.09359420634951
