    23
        -45.36546981  Gyration_radius:  2.45421051755 Dipole_moment: 4.618
 S          -1.27847335843063    1.49687162371871   -0.82033657985044
O          -0.24258903601316    2.27616373365581   -0.14903965635659
O          -2.52526439366312    2.16152356923276   -1.01407322612685
O          -0.69947482407672    1.27219076827849   -2.32885639913971
O          -1.35058211365682    0.14947168279790   -0.26369319879174
H           0.04219376933246   -0.73288014262631   -0.37345612290620
H          -1.26514711025819    1.89242485297241   -2.77655627031738
O           0.94217849919469   -1.13177827377156   -0.28677477764233
H           1.40178841216930   -0.89290572900708   -1.11219236129302
O          -0.09786250503454   -2.77974019555048    1.66547683082702
H           0.40452886379530   -2.36336358889452    0.94542753885905
H          -0.71788688094729   -3.38062655624688    1.24927814012121
O           1.73264837892410   -0.01909856646377   -2.62657476010188
H           0.95167417207454    0.55432619720260   -2.56623306829314
H           1.68750135817915   -0.45352811005066   -3.48010218712513
O          -1.19910097189392   -0.39631214094013    2.39995736677188
H          -1.56581675318919   -0.20298395066730    1.51816219444376
H          -0.90365646162869   -1.32770488707815    2.34955658716053
N           0.97483277534287    0.78784185997409    1.56199905441158
H           0.53499820932109    1.50773254078286    0.89758000474027
H           1.30637459297087    0.01034627897199    0.94834301966021
H           1.70722279245063    1.18565107673635    2.13784696744280
H           0.15991260507250    0.38637794695879    2.12426091352040
