    23
        -45.38023217  Gyration_radius:  2.32641556793 Dipole_moment: 3.136
 S           0.29142066822742   -1.08454312301780   -0.88302578962902
O           0.83603843680809   -1.47523899130386    0.43323111523448
O          -1.10099313553060   -1.42249246806008   -1.01831696646647
O           0.53437248076320    0.34073629219606   -1.10358387639718
O           1.08818085695303   -1.87882939640513   -1.96247817031181
H           2.02136449332676   -1.74788745020612   -1.70028922099417
H          -0.84337894962764    1.27807631496412   -1.23508784549896
O          -1.63567144602730    1.85903918275415   -1.16543866919578
H          -2.03743645572798    1.85454322549807   -2.03524391168796
O           3.28001845555047   -1.57089930435969   -0.51186906612083
H           2.49963505233610   -1.48265125082073    0.07276749207731
H           3.71973608312446   -2.38658838161969   -0.26167929497397
O           0.59686904123697    2.25513966974131    0.75748374878715
H           0.83868040285607    1.62704503766654    0.04543380103130
H          -0.09779602967850    2.79759885347053    0.36992664023188
O          -2.66729925263508    0.03218799969669    0.54487251848562
H          -2.29942456974316   -0.67303010617424   -0.02967798467173
H          -2.55416229342174    0.83846519531041    0.00321107728469
N          -0.49553731014387    0.16942580227225    1.97632464384065
H          -0.06058764235638    1.09108235143318    1.69749055384743
H          -0.50717352136849    0.03364315703744    2.98100514922723
H          -1.47866114760365    0.12235502525967    1.53987578295410
H           0.07180577267882   -0.57717765534090    1.48506827295132
