    23
        -45.34557482  Gyration_radius:  2.51379207534 Dipole_moment: 4.453
 S           1.72155915127832    0.99381585732251    1.52267780529442
O           2.48132984201250    1.66437645625765    0.51429630282993
O           0.80857552097425    1.75013051399788    2.30643222188608
O           1.00623879425187   -0.21315944135172    0.87270005281051
O           2.72164798571843    0.26647114545231    2.49621129017558
H           3.49543617513271    0.02850692554481    1.98835204312412
H           0.56740704600887    0.23633205523851    0.04359341921281
O           0.21234215629889    1.11359165795125   -1.08690668179996
H           1.05291847239341    1.55356195766320   -1.24698274746068
O          -2.50354718067982   -0.98609841060241    0.77693366133761
H          -2.83537280536858   -1.23827631410163    1.63941465844944
H          -2.23959596076797   -0.04451671825524    0.85347017371088
O          -1.62756178467122    1.56810340500168    1.01623385770454
H          -1.24984138770916    1.71578521924621    0.14159041360905
H          -0.90058207588297    1.70358886689068    1.64308566903165
O          -0.45453926025655   -2.35167961460203   -0.39002830190789
H          -1.28539656095183   -1.97464459210771   -0.03921515159375
H           0.23083187000191   -1.98372768958568    0.17493655686448
N          -0.24074562042488   -0.81453378379486   -2.74566929596728
H           0.04468480622346    0.42156261023301   -1.83268024009649
H          -0.33176010601919   -1.53067534842154   -2.01353938826454
H          -1.12981005730138   -0.75312778192219   -3.22464220284382
H           0.45578096974274   -1.12538696607486   -3.41026412609092
