    23
        -45.37772654  Gyration_radius:  2.3571737482 Dipole_moment: 1.962
 S          -0.86344137316784    1.20774190325828    0.97745379871336
O          -1.35040369445473    1.34772746480704   -0.39245881505696
O          -0.82824530490706   -0.17608010972556    1.40973986776555
O           0.39653622604288    1.89770198686139    1.16982183161481
O          -1.93486615601169    1.91906318533229    1.90564133750728
H          -1.94457777314716    2.82873780352377    1.62107151782905
H           1.50454653818612    1.86644638368728   -0.89065262714915
O           1.03979389408785    1.28078932083422   -1.49671729771351
H           0.09178616385578    1.40930928346859   -1.28085333059255
O          -0.39706345206893   -2.67540695458826   -1.78524111602934
H          -0.40737677437025   -2.54975904594630   -2.73530041277227
H          -1.19611959989498   -2.20609199949971   -1.43958298067985
O          -2.29681866129638   -1.14588795988571   -0.70965018851556
H          -2.06422882338548   -0.20214161329382   -0.79600631672496
H          -2.21538708548968   -1.30930793968908    0.23655052997498
O           2.53230945912972    0.29543185515413    1.54384252124221
H           1.77218343606242    0.90487653272149    1.45806518214329
H           2.95847251020388    0.52964247032473    2.36886286236566
N           1.05893258730906   -1.07234188600786   -0.23839961426291
H           1.17556219983622   -0.20279366418166   -0.82789123480980
H           0.70106830461250   -1.85667124837117   -0.83412875662256
H           1.93484483273390   -1.25343320502356    0.25170706365053
H           0.33249253611787   -0.83755254375768    0.48412616813078
