    23
        -45.36579531  Gyration_radius:  2.6252446409 Dipole_moment: 8.412
 S           1.59278908496046    1.21700090724175   -1.65302779306818
O           0.78388009576663    0.16018112258952   -2.24112120434012
O           2.61399189712196    1.77385882393753   -2.48039742919595
O           0.55226502627268    2.43456249671400   -1.39067649183847
O           2.04089169010036    0.83677951842829   -0.30759281094294
H           1.20522041498168    1.25277436892644    1.02890728127222
H           1.11069716603748    3.16135203906095   -1.64333822725109
O           0.69590017320646    1.31970634710326    1.87520784972379
H           1.35469919444810    1.30892362701914    2.57103427292187
O          -1.57410207304223    0.62134841635683   -1.25623860246295
H          -1.50153706089911    1.56973357819595   -1.11734691334861
H          -0.74614146078402    0.39569934406235   -1.75056884149649
O          -2.63337327280512   -2.52583922221876    2.02385209864441
H          -2.36473120452112   -3.44259758177339    2.11471197460167
H          -3.52308504743735   -2.51869560437364    1.66432935417073
O           1.33393902643368   -1.69051134309445   -0.34661364872263
H           1.07390597356780   -1.63113606247851   -1.27558811324109
H           1.80289641791402   -0.83615779596927   -0.21682277078239
N          -0.78425359106094   -0.69675713868701    0.90402196833208
H          -1.25346497338457   -0.19941116242896    0.09743233074262
H          -1.44087099739767   -1.29301842167594    1.41704958727667
H           0.00997509306225   -1.25512453671542    0.48019729882846
H          -0.34949157255059    0.03732826976156    1.50258884017666
