    23
        -45.37695754  Gyration_radius:  2.29666807915 Dipole_moment: 3.460
 S          -0.69347552810600    1.74120885222229    0.31302095143647
O          -2.10550716911389    1.75825114921561    0.57773347897771
O           0.05595111058667    0.82100508578689    1.15720062793981
O          -0.39253194410295    1.50566752509161   -1.10448022823078
O          -0.12558332646810    3.18526620660278    0.64733526497545
H          -0.84147287195540    3.77210907104007    0.42261932093782
H          -1.19337496824557   -0.34359290546942    1.27521423236485
O          -1.92072013580061   -0.95422264449399    1.04038590018958
H          -2.68748705646458   -0.37230581712623    1.01010856095000
O           1.66140163736495   -1.77111421732060   -0.98059226204134
H           2.05295883726899   -0.87289148946915   -1.07052905076192
H           1.64750906762434   -1.92404848960172   -0.01283210384946
O           1.20814490102923   -1.60083110297652    1.66290997107455
H           0.46206948237495   -2.06021986266617    2.05360433707828
H           0.93628950616839   -0.67084252936370    1.58607805958091
O           2.19229592811872    0.85367786177520   -0.81272036156948
H           1.30460401127134    1.19844784269975   -1.02336077724152
H           2.30308460443827    1.00894697293736    0.12866721330808
N          -0.79487010220148   -1.07483140748146   -1.39648206539544
H          -0.68907446662002   -0.02667791241442   -1.45057116214626
H           0.21783926512244   -1.47115439784557   -1.28858699271551
H          -1.33555750624233   -1.25687294342260   -0.51830969562416
H          -1.26249326603623   -1.44497482766911   -2.21641320919637
