    23
        -45.38150340  Gyration_radius:  2.27691002038 Dipole_moment: 3.779
 S          -0.74662328158276   -0.76827534979124    0.76558586181879
O           0.46134640466900   -0.13708746493270    1.32721305044434
O          -0.41589935327556   -1.49873538341443   -0.44884510669811
O          -1.27068937106682   -1.78620739151427    1.82892616629475
O          -1.80184590163293    0.20137562464166    0.55330432678403
H          -2.06413156817541    0.26402165678343   -1.11501775092739
H          -0.47890257695375   -2.28433580684430    2.10776691915128
O          -1.84414239785197    0.18688041309162   -2.07064435942295
H          -1.49400309273497   -0.71086656767305   -2.12991793304012
O           1.84816888825842   -0.41413065510173   -1.13853640087816
H           2.19811064425140   -0.23435718566944   -0.26092547466017
H           1.05261216441081   -0.97538868844511   -0.96305687443827
O           1.24140853134887   -2.34027310021568    2.51359101937868
H           1.44530375098179   -2.19654021423347    3.44024809684397
H           1.19126430428186   -1.45538591206402    2.09701081201084
O          -0.12567360762982    2.34901028107536    0.67769857427195
H           0.22897533148216    1.51062933037901    1.04840540226984
H          -1.07879335386039    2.22920976207053    0.76793058741456
N           0.34162540055642    1.63955074241780   -1.82738584284573
H           1.07099995411168    0.88163175781010   -1.67680675940520
H           0.62030795022940    2.30823107459484   -2.53647807720043
H          -0.56404447353054    1.13590671754132   -2.07938425242402
H           0.18462566479410    2.09513634837670   -0.88068201659889
