    23
        -45.37824986  Gyration_radius:  2.3531967178 Dipole_moment: 2.050
 S           0.15462016781592    1.09420892635344   -1.29552676140580
O           0.13443314824563    0.69216951010159   -2.67259740476782
O          -1.13224016112062    0.96101132428822   -0.61025295442908
O           1.21652802117906    0.48992714010694   -0.50256322745005
O           0.45330380349111    2.67027292602233   -1.30695078902365
H           0.62708920750883    2.83907161844570   -2.22773966921134
H           1.27095238682196   -1.07566230086792   -1.27509272389000
O           0.91320977093567   -1.78520367981767   -1.83839836562008
H           0.49914561876705   -1.29184333088162   -2.55790692145050
O          -0.38340205904586    2.52460840125854    1.44176453196187
H           0.14076702890554    3.22263058697940    1.04408351913971
H          -0.76954705238970    2.04110139269318    0.68834691521401
O           0.96633509326673    0.29621977540768    2.15184359514967
H           0.56299774102189    1.18253557130680    2.23605095283495
H           1.33396856960666    0.31070051213999    1.24582325937928
O          -0.47746583337009   -3.15379696515520   -0.06763783412009
H           0.15753881150860   -3.77032001309394    0.30129145366990
H          -0.01355898372214   -2.71617004416540   -0.82650816633703
N          -1.15236230909418   -0.92493550775537    1.23243674225924
H          -0.93660276192222   -1.86104497261777    0.80020804638780
H          -1.28044221856104   -0.22554621652094    0.45326143592546
H          -1.98252610867118   -0.96628014220631    1.81345343220756
H          -0.30274187648772   -0.55365449370506    1.77261090872727
