    23
        -45.37402747  Gyration_radius:  2.29443672907 Dipole_moment: 3.433
 S          -1.33566673551607    0.27612875963199   -1.46324743049768
O          -1.34977591110040    1.43753711036029   -0.57732194341359
O          -0.97879976125894    0.55729214437793   -2.81377146137248
O          -0.48012109754816   -0.78177935792630   -0.87568353454595
O          -2.80433821543045   -0.30691772392185   -1.41349601906212
H          -3.03832967865556   -0.26550073696815   -0.48506983793162
H           0.93994407742396   -0.07628222642672   -1.51751365442422
O           1.71125378750592    0.49998177216203   -1.68260962052174
H           1.50397745309052    0.92489053297757   -2.51880537668655
O          -1.77042170964188   -0.99665973740201    1.37632604499722
H          -1.92491687341869   -1.92895896305610    1.54344273281140
H          -1.28557658826987   -0.94615165910244    0.52226593299711
O           0.67859671283139   -0.20928196537469    2.37917014410990
H          -0.27167579225519   -0.40494099649284    2.27190681533952
H           1.13561340437644   -0.92672544210595    1.89282691451824
O           1.60562047097154   -1.89745540790090    0.49005108990034
H           2.36985658109364   -1.65790239015403   -0.03824984000766
H           0.83304196939742   -1.68139215466036   -0.05754837541886
N           0.91893534853332    1.70274878495270    0.60885206654975
H           1.19389501824926    2.62463039317831    0.92820178931996
H           0.89777752719201    0.98647752605697    1.41021532716643
H          -0.06760384414308    1.70851295207518    0.18884243986354
H           1.51871388649672    1.36174883575360   -0.16878419372353
