    23
        -45.37714071  Gyration_radius:  2.34376323674 Dipole_moment: 0.802
 S          -0.41268327457719    1.45352701388264    1.10890130051860
O           0.65617760518449    1.54649401812078    0.10781690383549
O          -1.32219527859086    0.36776553944289    0.81195659610006
O           0.11651842015639    1.42071029215873    2.45372344715060
O          -1.25437385035347    2.79028367025838    0.97361216444458
H          -0.70965829733066    3.43558136467437    1.41423538323787
H           0.20923159981582   -0.24635405847195    2.74106900582841
O           0.17572105714475   -1.20668472863631    2.53486447690393
H          -0.71573433847790   -1.33384786869678    2.19451413387441
O           0.30432397912101    0.80733082190547   -2.49789992954559
H          -0.63523219684522    0.58868942924396   -2.49600874160693
H           0.47414391407597    1.21856446541249   -1.63184129454236
O          -1.86020769600746   -0.80477553274128   -1.48021537287020
H          -2.79734925024616   -1.00208400081805   -1.47120743437421
H          -1.67327639831233   -0.34541921274667   -0.63074891210425
O           0.68674922629814   -1.75701916697068   -1.87820473619998
H          -0.27174494142313   -1.82212379598792   -1.73941771103029
H           0.77288970674958   -0.88696802884307   -2.33155692950790
N           1.67651203146711   -0.86085700752990    0.36934057524172
H           1.16065426868202   -1.18105948078191    1.23412545278949
H           2.67861564662491   -0.97858560676141    0.47544754182275
H           1.31689381652283   -1.36010133953030   -0.51360840176844
H           1.42402426024999    0.15693321336623    0.25110249178099
