    23
        -45.35004212  Gyration_radius:  2.44265707937 Dipole_moment: 3.458
 S          -1.13997736670725   -2.05539435619119    0.26305409751512
O          -0.56273963815884   -1.56247395361865   -0.95770884340137
O          -0.28537246968946   -2.63991521023376    1.23072687269085
O          -1.98086787458686   -0.94411466784253    0.89738272143510
O          -2.21892477435959   -3.13379642552024   -0.14775022791606
H          -2.52798485983162   -2.90504256049814   -1.02207231424136
H          -1.95139013950483   -0.11073903582197    0.26774617269307
O           0.10087779132785    2.12055664816554    0.96173413208014
H          -0.24054329358818    2.50206611825370    1.77105883095106
O          -1.69720119320782    1.00534266354110   -0.63138897749327
H          -1.09048095106091    1.55250795132055   -0.07094731407711
H          -1.13317254213882    0.61762604689433   -1.31208505672697
O           2.00730501846400   -0.51687000017464   -1.23480318460431
H           1.74328592549642    0.36333251000547   -1.54820103058878
H           1.20883147370452   -1.05774942129280   -1.29937264909781
O           1.03259025078233    2.06923674698911   -1.66910295212430
H           0.80802888002460    2.26354748291167   -0.74655698744005
H           1.67146278228479    2.72794430414826   -1.94397127101763
N           1.28010705681522   -0.13813839385561    1.49429284128598
H           0.56560500871406    1.24758999083137    1.22309303687022
H           0.66577145188391   -0.93420688990567    1.63715699046784
H           1.76737672174477   -0.31414839896318    0.60890200280097
H           1.97741272159197   -0.15716114913960    2.22881310993761
