    23
        -45.35199330  Gyration_radius:  2.40237253102 Dipole_moment: 3.734
 S           1.25677294067320    0.68828453889941    1.54579341055187
O           1.34904508702398    1.81953081682609    0.66928323858546
O           1.93700096021258    0.71924518027981    2.78583129809301
O          -0.24432333561334    0.38030610121613    1.82919306070762
O           1.69484734552261   -0.57838153129504    0.73453862324011
H           1.73391926163378   -0.33410860277854   -0.24141833168444
H          -0.74928405342820    0.26572308846852    0.95878038186785
O           1.71869675526574   -0.07450802346647   -1.79757832182620
H           2.54612419097682    0.36250937346798   -2.00585591231829
O           0.01733804810428   -2.16643090910108   -0.99030211053257
H           0.56796826223736   -1.70899920813632   -1.63863165454356
H           0.56399034201697   -2.24078756110599   -0.20088254687006
O          -1.65668927128561   -0.21853952309516   -0.22356344516798
H          -1.15475007525068   -0.98363469240553   -0.59013171326376
H          -2.34494897816424   -0.59888332363454    0.34457205044558
O          -2.65069155157058   -1.18945686205301    2.16354321707505
H          -2.56515262520296   -2.03370644534983    2.60978982231838
H          -1.96232281351897   -0.61363713039737    2.51739284787126
N          -0.09848679473251    1.78476909891942   -1.75545998331435
H          -0.25811559181668    2.53116430682954   -2.41863305639516
H          -0.99118335044901    1.36976984294055   -1.51361999231248
H           0.99608370979752    0.63989094682604   -1.88057399638151
H           0.29416154758946    2.17988049811091   -0.90206686614466
