    23
        -45.36579530  Gyration_radius:  2.62736193475 Dipole_moment: 8.472
 S          -2.42402967156807    0.11604463114912    0.93890468968898
O          -1.83949672656721    1.40151913054502    0.58804036346558
O          -3.66726407593133    0.15062322676133    1.63949001722247
O          -2.76248184683387   -0.58535759678073   -0.48489205194616
O          -1.41351426420878   -0.76482839377476    1.53744446330923
H          -0.55366450565300   -1.82632895771857    0.64850839081395
H          -3.60350290023154   -0.96906005814739   -0.26267665023996
O           0.11957037596502   -2.38163901133681    0.18095769796651
H           0.38079587683008   -3.05251789213949    0.81341000993507
O          -0.76603270150436    0.93024125648603   -1.72916300185811
H          -1.19691059426951    1.24643453651502   -0.89546858532336
H          -1.34376667487044    0.22163818186792   -2.02607044638982
O           3.89453071138900    0.64258232230690   -1.36836066707229
H           4.50277414766308    1.07056550257296   -0.76211351880278
H           3.95011495909196    1.10326268025994   -2.20827334857520
O           0.50522223670156    0.99417448962273    1.87520132166269
H          -0.13846528781283    0.25787114726870    1.97548690266116
H          -0.06790203770755    1.71587785939926    1.58396405167048
N           1.31756274984021   -0.05737744145807   -0.42111464422045
H           1.17052035465103    0.41854319463889    0.51370330603866
H           1.07503162737783   -1.06230878321373   -0.28824313948405
H           0.59194451697639    0.35073982782118   -1.07293772975988
H           2.26896373194487    0.07930014651423   -0.77579742045749
