    23
        -45.35738083  Gyration_radius:  2.25567607762 Dipole_moment: 5.689
 S           1.18064490805675   -0.86941742238026   -1.00063650433255
O           1.12217785349583   -2.08530497061387   -0.22654713021707
O           2.01988231281259   -0.81002790107817   -2.14494432020357
O          -0.26948178628796   -0.53048838473637   -1.44376820461334
O           1.57858443543267    0.28165808551314   -0.04546776297348
H           1.49569243121627   -0.02777576696002    0.91280565635784
H          -0.92363169956335   -1.11271579783403   -0.93730223558798
O          -1.38094985312125    0.01408237881016    1.79068774292249
H          -2.02689946964288    0.35200169912148    2.41275495653031
O           0.86076564701917    1.73168584677388   -2.40701242155682
H           1.48564171774811    0.99814944257042   -2.34799534857214
H           0.26974056294246    1.50642016633901   -3.12890349739154
O          -1.59704099680928   -2.07133055762182    0.09074139080513
H          -1.66246606334226   -1.42834812209766    0.82480306193483
H          -0.76833819088251   -2.55733886884344    0.20581961903650
O           1.14795253078500   -0.83725308488121    2.20670982060645
H           0.20194444444243   -0.59629573187818    2.26279140764622
H           1.20420915801484   -1.66885561957864    1.71514364321648
N          -0.78686694701796    2.02573032296386    0.19709086535923
H          -1.56001040924766    2.57124971869497   -0.16574442300781
H          -1.16438011061853    0.77846802127951    1.15638193021144
H          -0.26559274773148    1.67365672167630   -0.60544146215344
H          -0.16157772769535    2.66204980476515    0.67803319598517
