    23
        -45.36797940  Gyration_radius:  2.38629035879 Dipole_moment: 4.754
 S          -0.08073451975270    2.12026262555321    0.03436028646931
O           0.31514253486165    2.08074132831279   -1.35542103075354
O          -1.16194647111517    1.17201777572046    0.32770571255810
O           1.01035978781873    1.95365738413576    0.97450043363264
O          -0.68012208339060    3.56785548597233    0.26953168377434
H          -0.92266220675048    3.80880983449701   -0.61854926236858
H           1.75878712674246    0.59494643908289    1.23655547045091
O           2.13772478777479   -0.32062041216582    1.35085257122347
H           2.89218699604805   -0.22149503646192    1.93316930247820
O          -0.34278778147594   -2.16913820741498   -1.32645363432206
H           0.01276288526649   -2.97169433149574   -1.70961394401557
H           0.31621291466584   -1.44893347526014   -1.52235808512071
O           1.47218231494478   -0.29646246401297   -1.46771684434883
H           1.95112298481845   -0.31450328418652   -0.62998570955219
H           1.08211901420210    0.60073753500354   -1.54200353433644
O          -2.85349515602927   -0.98927209493551   -0.35004744985450
H          -2.53875091181906   -0.08539097815292   -0.22531422467475
H          -2.29814717309787   -1.36671572189844   -1.03936360018579
N          -0.41092747324305   -1.16821506351049    1.16012326602239
H          -0.75799913997548   -0.18704369906983    0.88960886628693
H          -1.00396328660102   -1.55366308125018    1.88728357242589
H          -0.47922967299380   -1.73613188496460    0.28099994530951
H           0.58216452910298   -1.06974863349339    1.44213620889310
