    23
        -45.37806262  Gyration_radius:  2.42671072258 Dipole_moment: 3.187
 S           0.60350428234712   -1.03549952287108    0.19832039356738
O           0.50585044522160   -0.36519098620897   -1.10224821827951
O          -0.52263581999462   -1.94761412045717    0.39736168465762
O           1.91318933021272   -1.88895069132475    0.18637021109076
O           0.72812007716736   -0.06998341946706    1.27142800052146
H          -1.28955071125879    0.22432916674716    2.07358388629891
H           1.70068948480404   -2.68374005348365   -0.34698621277798
O          -2.01678375568430   -0.07936912890580    1.51714467049000
H          -1.67362696151148   -0.92504430259910    1.15760835978827
O           0.61815744372522   -3.90738035521293   -0.93643384498552
H          -0.04695825297132   -3.30792397147168   -0.54084774837135
H           0.59221836249772   -4.71790666952182   -0.42266756396429
O          -0.08097734266952    3.43764454551070   -0.10732848218839
H          -0.12387148432280    3.80086693806110    0.77877680384872
H           0.78202634471291    2.94411779199234   -0.15478428657281
O           1.98084196571354    1.80703136011090   -0.11646365677642
H           1.64902832743893    1.17589916819311    0.55539403316607
H           1.95048136820058    1.29991980395050   -0.93454811974939
N          -1.48120180640306    1.26230809277958   -0.71028788691214
H          -0.68846337476572    0.61115101610355   -1.01117725263085
H          -1.86728163122439    0.82562690743034    0.17349299776997
H          -1.04557258410442    2.20059837401221   -0.49125537742285
H          -2.18718371713622    1.33911007663472   -1.43445238057084
