    23
        -45.36948863  Gyration_radius:  2.28939221716 Dipole_moment: 6.845
 S           1.02919813953815    1.81692177878366    0.57966008032396
O           1.94922089389620    2.88023232589412    0.34207036530878
O           0.23724809422750    1.88980290246112    1.78171367635917
O          -0.05765101440728    1.95408581211773   -0.65016924562753
O           1.57109686006313    0.46981143104865    0.36394510361596
H           1.59334855404964    0.11970830021932   -1.22419481968014
H          -0.08857604053038    2.90393986590843   -0.63551575732151
O           1.35065233928891   -0.15194555884605   -2.14485454792106
H           1.00254080192591    0.64357238541865   -2.55349307466508
O          -2.15918259393985    0.12277542205687   -0.48544889255828
H          -1.60183852169098    0.89252958382802   -0.67419224009765
H          -2.11848972996124    0.03972501366544    0.50818935313013
O           0.66307983843607   -1.74522628359414    1.32502485531432
H           1.02600876583062   -0.85896962496587    1.04950043470226
H           1.39235992547511   -2.20920602903758    1.73807157448089
O          -1.51553613253893   -0.06550344964353    2.03208599538090
H          -0.91773339754535   -0.82107627182239    2.08930824380046
H          -0.92712039034437    0.72271097107190    2.05938001526373
N          -0.49154990190838   -1.75599389218424   -1.11692653375767
H           0.24244056673376   -1.22824145018446   -1.66804651828373
H          -1.28701435347483   -1.04531227188886   -0.91369107428482
H          -0.82351563306024   -2.57837480787499   -1.60714828814592
H          -0.06898708006552   -1.99596616239703   -0.19526870531405
