    23
        -45.37126169  Gyration_radius:  2.37008609491 Dipole_moment: 7.040
 S           1.44827600175557    0.95525956264112   -0.28908247434214
O           1.46980859270041   -0.04598641108344    0.78825019409449
O           1.70244047144648    2.28709541713768    0.16434318925603
O           2.56934296540633    0.54056768066742   -1.29670745182196
O           0.17315416163838    0.83439283751856   -1.03228109371851
H          -0.55391443483155   -0.47347446154906   -1.32379445861738
H           2.34799695288716   -0.38480300623911   -1.52788669155186
O          -0.99914408086804   -1.37002885809747   -1.45347126056344
H          -1.72883375126525   -1.21286820789624   -2.05482417763994
O           1.66522063670964   -1.87192409142861   -2.06113965458998
H           0.71243500120336   -1.86124276952872   -1.86208436434827
H           1.75046268294528   -1.87803733115041   -3.01703591552114
O          -1.98223586269317    0.78221821711342    2.36959361392672
H          -1.67062144027344    1.06798744473366    3.23001366142330
H          -1.68788665258557    1.48791466120093    1.73312403297447
O          -0.95683625081206    2.51145593622133    0.67367304423519
H          -0.07015207401273    2.84927772341464    0.86469025325229
H          -0.78937803998390    1.96325452074275   -0.11428452491464
N          -0.70376192210239   -1.26614172523034    1.25567309582335
H          -0.59170048384217   -2.09841530755509    1.82309545186107
H          -1.06323092192695   -1.49594117245856    0.31455518464941
H          -1.30820504680849   -0.54391236084742    1.73084855699238
H           0.26676346532489   -0.77664829833219    1.08473179913584
