    23
        -45.35251168  Gyration_radius:  2.45333411631 Dipole_moment: 9.256
 S          -0.40677623054041   -1.55664958800836   -1.96628395548701
O          -0.19537742554304   -2.73701850812682   -1.14965388063564
O          -1.21044817363971   -1.69123851678066   -3.13000752280211
O          -1.22768945712283   -0.53071045378691   -0.95506650520421
O           0.83889997162488   -0.80434968149651   -2.17711078872173
H           1.75170373472276   -0.56630744683229   -1.00491418217503
H          -0.92484577801045   -0.87496802311629   -0.09498765215481
O           2.24273316857833   -0.19200598204889   -0.19424720914235
H           3.17560729557592   -0.30455370513486   -0.37927167901007
O          -1.60317746454562    0.08735783752504    2.28795803398944
H          -2.43486400716978   -0.21549717242851    1.91866732295825
H          -0.93406213126884   -0.57854711341735    2.04056631337569
O          -0.71044517608902    2.48775296161670    1.59315354292810
H          -1.12516609245209    1.64027348057574    1.88750925954207
H          -0.19169308073500    2.79962377926694    2.33635940822071
O           0.18840530208819   -1.56323814668632    1.08635044461594
H           1.05350164609702   -1.15278085239500    0.93782279651179
H           0.10686162267502   -2.24548374289926    0.36890923048836
N           0.32738420785470    1.62768095338684   -0.68883363514948
H          -0.34328094997782    0.86686738158137   -0.97862941768900
H           0.45763728791402    2.28207058426996   -1.45351424858158
H          -0.05685964141420    2.09073496869744    0.18094019287864
H           1.22195137122859    1.13098700619119   -0.46571588864559
