    23
        -45.37926069  Gyration_radius:  2.28440057117 Dipole_moment: 2.973
 S           0.33445767336381   -0.81837474290972   -1.44723546710388
O          -0.95962096275805   -0.64831003638825   -2.09489867999136
O           1.11664328977749    0.39608418510034   -1.39530954077228
O           0.17442196533528   -1.44352688296077   -0.13924154223740
O           1.15317350595907   -1.83293361122942   -2.34023519431039
H           0.55473318903086   -2.56793233641901   -2.42537326985864
H           0.65977324103197   -0.48315979224500    1.21949097667336
O          -0.14919470025269    2.06812983071162    0.29924863390434
H           0.38348410713128    1.72602191276886   -0.44201877256745
O           0.81841677906104    0.18692191951214    1.91292996085623
H           0.19227818401674    1.55979199159956    1.07392257603072
H           1.76558675132970    0.36665259167138    1.83148168257476
O           3.11171473601248    0.48779790740138    0.42480597023615
H           2.45211350070023    0.40492569343034   -0.28999837282752
H           3.83410496397836    1.00186088540296    0.06212214594140
O          -1.84144640585742   -1.20530785189966    1.61741551056050
H          -1.33422855451877   -0.82371141907131    2.34160401741638
H          -1.16605499220184   -1.55698821382246    1.00472447713502
N          -2.25841566289550    0.64905562747174   -0.24368469868652
H          -1.86903676737462    0.12598545524658   -1.08017676062561
H          -2.30981922879015   -0.04074505800062    0.55137296346567
H          -1.50559098429746    1.37668511479477    0.00664601033851
H          -3.15749363780161    1.07107682988111   -0.44759265612291
