    23
        -45.37605348  Gyration_radius:  2.36817276565 Dipole_moment: 6.079
 S           0.64041372721603   -1.21616630377942    0.04457466425172
O           0.39536245471865   -0.80067851859433   -1.35749402594686
O           1.48212797992224   -0.25726510899965    0.72083378516130
O          -0.62379943297665   -1.43002956492513    0.72679435657625
O           1.41130677607998   -2.57006741292945   -0.01620884451636
H           0.87784284021084   -3.10987540281523   -0.63181278844871
H          -1.58820721707237   -0.20194832083733    0.89856751244925
O          -2.13060803750102    0.63759430490744    0.93099953930104
H          -3.04488989098440    0.35535429519792    0.98377078251045
O          -0.08683868225521   -3.27960898003007   -2.08776076102368
H           0.42492978936497   -3.49936695558062   -2.86959116512672
H          -0.07891106269845   -2.30396252163960   -2.01398946500206
O           1.51634558549504    2.47097341058165    0.51393801628905
H           1.98544269981845    1.62277922712362    0.46346737700806
H           1.07685380484723    2.41431504645439    1.39040921612553
O           0.15112459076217    1.35894768558930    2.51818349098687
H          -0.77385442793525    1.22045881260188    2.28338635303469
H           0.62989429647370    0.60413393233686    2.13609328373307
N          -0.47013431740548    1.62032825893840   -0.94904312187660
H          -1.25405255350550    1.43732767326332   -0.28727211592551
H           0.33499676838588    2.09527927652089   -0.40787804460559
H          -0.10576185350904    0.66258344704540   -1.24208252172513
H          -0.76958383744779    2.16889369957403   -1.74788552324386
