    23
        -45.37714068  Gyration_radius:  2.34387278127 Dipole_moment: 0.813
 S          -0.79056216724915   -1.60766464037224    0.55320489521430
O           0.10222456331276   -2.66380625236812    0.97404289606739
O          -0.72314022933087   -0.45013420042335    1.45261508049434
O          -0.61954483133051   -1.21357122173894   -0.82880479864002
O          -2.26731807264116   -2.17115644802932    0.67703792788575
H          -2.24976060204818   -2.64600832065691    1.50251509465762
H           1.54064517967973   -1.71020286610635   -1.34347901057800
O           2.07242443150177   -1.81908505251769   -0.54852630732831
H           1.48445652012031   -2.32475498538442    0.05522441995254
O          -1.05105806175367    1.10535579352462   -1.99254353921973
H          -0.91591421851135    0.23416074941261   -1.55622800245903
H          -1.39931642287935    0.91147409802051   -2.86333237069326
O          -1.51359669693542    2.05187855581362    0.69442855545096
H          -1.85560039679468    1.87156506987878   -0.18930109254572
H          -1.34272203355598    1.17752171666737    1.08723558031194
O           0.81961809180665    2.47882613687445   -0.52298864733977
H           0.03761680129378    2.61216861248152    0.06049430143117
H           0.41548395638507    2.11657420588014   -1.32791185361524
N           1.67899224905941    0.41626178878382    0.83381452971855
H           0.75531021759673    0.10523837834314    1.23860658282144
H           1.46356737884886    1.28509831621564    0.23629074460906
H           2.34541519984194    0.63136057600719    1.56794515085581
H           2.01277913355879   -0.39109999029275    0.23965987290457
