    23
        -45.37269745  Gyration_radius:  2.37795335262 Dipole_moment: 3.529
 S           0.78802013562929   -0.82732669749446    1.64297186986958
O          -0.46819915940080   -1.31385729201200    2.15610789462505
O           1.11260919859592   -1.36296589070578    0.32697119769661
O           0.91068558983712    0.62678221260523    1.65402209703787
O           1.91246665752740   -1.35022943681832    2.63594237025473
H           1.57436242813329   -2.20365237754336    2.88802804017505
H          -0.31063551298486    1.44187068135260    0.94929879370284
O          -0.94358856005168    1.86275594814760    0.31541266995130
H          -0.79492776002926    2.80754276144504    0.38549803669149
O          -2.21674839460574   -0.70247709956201    0.22238166504498
H          -2.16451476834573    0.25366711352089    0.33020421362780
H          -1.65909226038612   -1.06849465115556    0.93647183954936
O           2.40910189508996    1.46065037640002   -0.44292865191913
H           1.92957671569449    1.17842107081341    0.35993534149879
H           3.33827681986413    1.36817046991488   -0.23085919433318
O          -1.87034722638490   -1.14721271560965   -2.39115304130818
H          -2.70944140950396   -0.97589019552032   -2.82009201546772
H          -2.05492708469808   -1.16174858272621   -1.42347002059268
N           0.24301409449516    0.23236264358530   -1.53436704453820
H           0.61902394543427   -0.47634960392096   -0.82707530976473
H          -0.24967801234202    0.96178982945627   -0.97781910013868
H           1.04331387535672    0.65024699081545   -2.00430084199409
H          -0.43835121691998   -0.25405556499069   -2.15118081966688
