    23
        -45.36995835  Gyration_radius:  2.60162635899 Dipole_moment: 2.418
 S           2.03187847570034    0.83271462397661   -0.75585001413040
O           1.12596810136215    1.77159537074019   -1.39836325329518
O           1.93155947897052    0.88927989277825    0.70064838259595
O           1.90280316853636   -0.51673754235522   -1.26423683910332
O           3.50536445242341    1.30979071230730   -1.11805869964133
H           3.51100289661273    2.22947704467117   -0.86726477294197
H          -0.51492048479185   -0.49548604350833   -2.18607993413968
O          -0.87122876491742    0.16728564314627   -1.58855458828372
H          -0.17732826904973    0.88282697837375   -1.57779012436440
O           1.42463413358513   -2.65347163962867    0.23549090332465
H           2.24558249268228   -2.91434536619729    0.65500070200196
H           1.66734964778793   -1.95313868954660   -0.41162989050762
O          -3.16927436171500    0.84455256812151   -0.18096645043284
H          -2.39594618859356    0.74245325630922   -0.75978774513649
H          -3.91235836581789    0.46265204257055   -0.65051607144839
O          -2.38219022630145    0.12712430319529    2.31179078087797
H          -2.79204251767388    0.39715275242281    1.46377008324824
H          -2.34622354475536    0.91668997807210    2.85395512641676
N          -0.17464396569173   -0.61957846766201    0.93675442308332
H           0.64650678408811    0.04214143799982    1.03687748594998
H           0.22174366927656   -1.57811848379593    0.93335794519389
H          -0.91992121263446   -0.45900289431546    1.64478308885317
H          -0.55831538906669   -0.42585746771221   -0.01333050812535
