    23
        -45.36288460  Gyration_radius:  2.5011815614 Dipole_moment: 7.457
 S          -0.71605957735717   -1.54893107110440   -0.83739255985256
O          -1.29183551946261   -2.86587810094671   -0.86575304108807
O          -0.90280000800570   -0.73310927031961   -2.01720870150443
O          -1.49259363539911   -0.71697519918456    0.32430857692498
O           0.67918229052615   -1.53850858494248   -0.38880479381188
H           1.38101327706706   -0.88414114460644    0.92378299354048
H          -1.46062539042485   -1.34907197479440    1.07513377754736
O           1.77286498491869   -0.32977747155402    1.64443593792562
H           2.70637638094984   -0.54283193036672    1.66751803859652
O          -0.95770445613234   -2.85972549990281    1.73567966342857
H          -1.13244791228821   -3.17490638601825    0.82391561056037
H          -0.00332927049829   -2.88069101362446    1.84029613898238
O           1.25714556083257    0.66114650577815   -2.11390863879060
H           1.88890812311689   -0.03545702987771   -1.91363946562671
H           0.41000334620790    0.16480548149924   -2.27189808889485
O          -0.88357549005368    3.88593006807543    0.02407919479912
H          -0.72418955759561    4.21259407622496   -0.86482558915148
H          -1.83100101764048    3.91729987565165    0.17495376422500
N           0.25864386995007    1.35404801233157    0.22251418722835
H           0.92052872205309    1.04389354320672    0.95938309771611
H          -0.06389611353177    2.32652307559029    0.32746534280012
H           0.72662748028403    1.20283112797446   -0.72600113278819
H          -0.54123606751944    0.69093291091337    0.25596568723851
