    23
        -45.36166043  Gyration_radius:  2.33413764949 Dipole_moment: 7.056
 S           2.27981274056558    0.40691805430088    0.30321067161161
O           1.78699952280607   -0.84995127315713    0.82259983897273
O           3.67590870805229    0.52241244398890    0.11361769314085
O           1.49709176444538    0.68738673679849   -1.02009855579497
O           1.79117885956737    1.56161847398284    1.20323945826714
H           0.80046058254579    1.50252452893784    1.34650564031691
H           1.27227638525467   -0.23024401314942   -1.39669788008848
O          -0.78339064708863    1.53561818432673    1.48726108403539
H          -1.03526817477028    2.40178575495465    1.81221564778517
O           0.89573315176589   -1.70706834608424   -1.58642923779838
H           1.31831886760907   -1.96597507836429   -0.75527928874991
H          -0.07298456381050   -1.74047420664303   -1.41368523225470
O          -0.72878869841184   -1.24293368368718    1.66863860645725
H          -0.94642079807200   -0.33155982382450    1.90317024111952
H           0.23077619525004   -1.22867445019465    1.48699836316971
O          -1.66133562773031   -1.65912721993206   -0.74830170133360
H          -2.16870928267365   -2.47154868293427   -0.77353696274430
H          -1.38254344133411   -1.53378464243112    0.20076273869258
N          -1.41391681153985    1.28868781771462   -1.03228394929982
H          -1.70559698385474    0.32176677770048   -1.14641090654096
H          -0.49567412138460    1.37870658892014   -1.45473968900940
H          -2.06191892068203    1.87763059140542   -1.53889723642705
H          -1.09200870651696    1.47628548737353    0.51814064647682
