    23
        -45.34816738  Gyration_radius:  2.38881545492 Dipole_moment: 7.995
 S           0.63485038614722    1.59506323128124    1.83917777693826
O          -0.66513253427917    2.12765331387125    2.13221379176068
O           1.76018607973671    2.06104137465809    2.55109475108412
O           0.55121261964757    0.04012705394976    1.93326041561367
O           0.91143024620820    1.81188970758036    0.30697800613808
H           0.08332744598852    1.62620386777004   -0.21230563591726
H          -0.39334488792888   -0.17789162393604    1.70234266547633
O          -0.18925170882544   -0.86827490570621   -2.40193085887275
H          -0.75392296665040   -1.35216969294279   -3.00616293360927
O           2.35131576739401   -0.47393506201455   -0.59239917021299
H           2.00780011114752   -0.37449711536192   -1.48468691909275
H           2.16914064301847    0.35436272042948   -0.13461197790211
O          -1.94105177670794   -0.01946920336006    1.24704685692640
H          -1.94295101754969    0.81348508081480    1.74996894067248
H          -1.93123777113432    0.25864984801187    0.31856159514786
O          -1.17706313317076    1.17413085122764   -1.13904416566925
H          -0.79839501925348    0.42267743911322   -1.68225877306669
H          -1.38687206981073    1.88491963683598   -1.74742077399079
N           0.10986900771992   -2.27114584461055   -0.19122271972995
H          -0.60666888485069   -2.10571881040278    0.50529095246695
H           0.30269134708471   -3.26445196983966   -0.21279573615382
H          -0.05648463901083   -1.46327860717608   -1.59644596716140
H           0.96055274510562   -1.79937130018199    0.11534985915242
