    23
        -45.37694062  Gyration_radius:  2.38004485217 Dipole_moment: 2.236
 S          -1.88415645405780    0.98693915147107   -0.02869734989810
O          -1.54258507139623    1.69850777845642   -1.25557828157939
O          -2.42452183587114   -0.33021446673408   -0.23715076197634
O          -0.74419464726382    0.97345284953051    0.89295657535860
O          -3.01243090082769    1.85559419597520    0.66760829030636
H          -2.72853179507266    2.74697996744613    0.48931021544319
H          -0.37724893565757   -0.53667303681890    1.36584533724168
O          -0.10802112715072   -1.46717846635143    1.57411056521950
H          -0.81714131542911   -1.82656344005765    2.10919501703814
O           1.88158622658167    1.25238873227180    0.25986221468026
H           2.30296259573769    0.51929028002022    0.74966164477587
H           1.00027734806941    1.35370619568933    0.66430239519016
O          -0.43359996356394   -1.84442990470926   -1.11300778354496
H          -0.12216475621459   -1.99432691909332   -0.20340757773020
H          -1.31396529335606   -1.43775510524724   -0.96966486486381
O           2.59014842048110   -1.05182142102496    1.52590714819681
H           2.97431537477660   -1.82415236929260    1.10875377968464
H           1.65729655781465   -1.26640121856973    1.70479108096022
N           0.64378532388806    0.43455471915188   -1.89287780939996
H           1.30661919505036    0.75937929381880   -1.11914645201405
H           1.04734742411833    0.53398666210521   -2.81758022371671
H           0.33409645910460   -0.56151889430329   -1.69391871470829
H          -0.22987282974924    1.02625541626153   -1.78127444468196
