    23
        -45.37569208  Gyration_radius:  2.33011609574 Dipole_moment: 4.874
 S           0.55487961924709    1.30707616484250   -0.56751316425109
O          -0.59385471637959    1.61339823559648    0.27647253491815
O           1.09392480266609    2.43698006594564   -1.26496241603955
O           1.68431604067128    0.79652983255906    0.47390667884418
O           0.31017252366032    0.12641559114678   -1.38752114419554
H          -1.21194617216710   -0.53753590060432   -1.48285271851205
H           1.82989312732580    1.63728892888271    0.96249416239308
O          -2.05433703636961   -1.04849361825189   -1.45187819931652
H          -2.67803930598661   -0.56188227944184   -1.99205482677896
O           0.47112659535398   -2.54407115267005   -1.33145750719504
H           0.65723626054255   -1.62561959765974   -1.60441488451666
H          -0.45402529512504   -2.68007064182598   -1.56565246173665
O           1.39030045876659    3.26858155981691    1.23327029883582
H           1.44935428423007    3.39891974612879    0.27019248983398
H           0.44799108769562    3.13479081258415    1.39230582917074
O          -1.81463921006876   -0.50114182343758    1.19041039041085
H          -1.46332322403573    0.39328399060035    0.95140036623690
H          -2.18550184591730   -0.83055751392451    0.34953741047696
N           0.53009054636889   -1.57965115118613    1.13559081712163
H           1.10780865599046   -0.73257816446588    0.97591566837854
H           0.54867894456576   -2.13641576353324    0.23354787410810
H           0.86979908207727   -2.11661572392698    1.92624112536474
H          -0.48990521311551   -1.21863159717814    1.27702168644530
