    23
        -45.35609990  Gyration_radius:  2.31431464215 Dipole_moment: 3.765
 S          -0.92147543557915    1.09939926939997   -1.53916858523270
O          -0.25382671866595   -0.08864161487194   -2.02585103522091
O          -1.99789340782501    1.57085185917473   -2.32991508975267
O          -1.42495843511473    0.77746212041820   -0.07893899341127
O           0.08508111086017    2.20919278917342   -1.27101545209808
H           0.82992013644938    1.86166394952505   -0.64862138566064
H          -1.76553088035049   -0.14066473155462   -0.10281394920438
O           1.85260400643346    1.40572540438605    0.34209246987248
H           2.33741170482245    2.17593986572875    0.64477466009195
O          -2.00691648735801   -1.68276929863049   -0.87405037647519
H          -2.79655113978913   -1.82721737448540   -1.39966145765257
H          -1.30722340682819   -1.38482102620863   -1.48803185128428
O           0.04984768224606   -2.03026239964558    1.17388029845909
H           0.78268391831540   -1.91774495877951    0.53347981956923
H          -0.73263104472877   -2.20676253472397    0.64337625759618
O           1.84528121050101   -1.24081669872293   -0.70832912158205
H           1.18544156970097   -0.92755584763202   -1.34695678674797
H           2.22653854964397   -0.43859110446894   -0.33386193139575
N           0.36873911602748    0.55081287528411    2.26047055023479
H           0.23270970166231   -0.43613030154242    2.01014767423814
H           0.65672824925000    0.59518670430412    3.22922857465789
H           1.28316065652331    1.06756995279365    1.14721132438263
H          -0.52914063619611    1.00817307108071    2.16255439661551
