    23
        -45.37169604  Gyration_radius:  2.45041696742 Dipole_moment: 3.818
 S           1.95683084726510   -0.87176831766360    0.02426660945962
O           2.08134328476084    0.29668497715004   -0.84200262977620
O           2.06875273271663   -0.58149322956839    1.42880286681405
O           0.72985966347171   -1.61197782014895   -0.28417929810567
O           3.16692470728859   -1.81619486899120   -0.37137428754541
H           3.27236304937393   -1.62502854260133   -1.29808079804324
H          -0.77244457845420   -1.10907995127206   -0.96573751008782
O          -1.63339095404993   -0.63993634123422   -1.00598562982336
H          -2.10826604890825   -0.95151184843883   -0.22830685452752
O          -2.03952944616877    1.91484247736156   -2.28145697982390
H          -2.10625348553756    0.96476637166519   -2.12027404122291
H          -2.48569171384569    2.08391570247724   -3.11182830964319
O          -0.97821902584379   -1.47836260285605    1.75118416546012
H          -0.28858877210481   -1.59374856869127    1.05981704390066
H          -0.75310873366905   -2.10107803265067    2.44387487951930
O           0.09788252624122    0.96240592673289    2.33009482544750
H           0.96897186260662    0.53378855405187    2.20228182860192
H          -0.51608446422576    0.20469107454676    2.34803058065122
N          -0.13765929822136    1.51556935377282   -0.21757263213744
H           0.80402202729765    1.16994049088858   -0.55863223761234
H          -0.38534649468349    2.41561385586317   -0.62016802759365
H          -0.83955953374018    0.81065708963113   -0.53028480220632
H          -0.10280816153340    1.50730423000096    0.84753123835509
