    23
        -45.38060758  Gyration_radius:  2.25779085151 Dipole_moment: 4.760
 S          -0.50036506459724    1.03419455810792    1.51566591931531
O           0.54912755637067    0.58461417168234    2.39798429160387
O          -0.05488443958276    1.84322651617963    0.39932795232612
O          -1.34685962246104   -0.07381908156194    1.05171811426562
O          -1.44117180299690    1.95439379843953    2.40237214344918
H          -1.11170768987974    1.76041740624769    3.27311553747527
H          -0.66795484120474   -1.42441408407292    0.52181466375403
O          -0.24881462041208   -2.21261959666894    0.08428233099702
H          -0.74503788276400   -2.97552359302878    0.38401995150980
O           1.89592305550757    0.78714468258284   -1.06402406715912
H           2.24158568454675    0.15897239077405   -0.38363637430838
H           1.30092525082029    1.37455790970441   -0.55258375651145
O          -1.93827023745372    0.94420241004345   -1.28876677560143
H          -1.97488071221597    0.50086937193214   -0.41345031449849
H          -1.43951532493546    1.74675033886868   -1.08205302918196
O           2.15830028645088   -0.94731002954704    0.90851189464099
H           1.70670567566748   -0.39228605184164    1.57500712286701
H           1.52265200905545   -1.63876549635227    0.68300592151628
N           0.01592303308703   -0.62628001520423   -2.11773573791175
H           0.87980582930184   -0.03824318053365   -1.78815867591177
H          -0.06094666545502   -1.43242163714871   -1.47246200655536
H          -0.83422731985921   -0.00735733905798   -1.94973095811509
H           0.09368785301553   -0.92030341958688   -3.08422415797504
