    23
        -45.34755553  Gyration_radius:  2.38563590003 Dipole_moment: 6.608
 S           1.81513859916953   -0.68759173146099   -0.41757029566283
O           2.01421551858425    0.71606155967562   -0.59145346236595
O           1.03355301519379   -1.10451790679937    0.70170463016368
O           1.28629419783786   -1.32234744489756   -1.70986049420129
O           3.22593704551597   -1.36481946592835   -0.30889364190343
H           3.79395400000637   -0.86756151508503   -0.89246348846604
H           0.28230965070766   -1.10048209111917   -1.82149446938046
O          -1.16772042101487   -0.84484472814366   -1.90180635780682
H          -1.56706892870807   -1.45170664335119   -2.52885344673285
O          -1.59872460565420    1.49763578674040    0.03718103007235
H          -0.89760553288337    2.18062494329014    0.10511470134106
H          -1.50657720383834    1.12178342564872   -0.84154882912444
O           0.01960079757541    0.91246325035718    2.36301034901183
H           0.48399684368672    0.18263500307833    1.93283864011313
H          -0.76167499411364    1.07603447237521    1.81765280757317
O           0.67463447850955    2.90187149322603    0.48829862044252
H           0.66859114148183    2.55825297002856    1.39474617434840
H           1.25656316904257    2.30206246329484    0.00058873647554
N          -1.87795724607234   -1.41109209145604    0.51880632283612
H          -2.48230886567179   -2.14294297148891    0.86817188563731
H          -1.51428570693090   -1.10439557981988   -0.96746694024128
H          -2.23104136530432   -0.51498505096526    0.83882059352884
H          -0.94982357713993   -1.53213816720952    0.91447694432510
