    23
        -45.35446554  Gyration_radius:  2.32877475283 Dipole_moment: 4.247
 S          -1.55829455858917    0.31764024449227    0.98339740594714
O          -1.52749947344537    0.60284053083256   -0.43719282250283
O          -2.38847837578669   -0.74605305476886    1.40504646766296
O          -0.13074013677620    0.11560252429728    1.49168100909753
O          -2.00681798185138    1.63890476923100    1.69944322164296
H          -1.47825493223463    2.36087613395231    1.31884866941620
H           0.60363207909969    0.45391819398410    0.83472430502058
O           0.43299933834064   -0.60379821212272   -1.94868593204067
H          -0.42093890356805   -0.15692508982192   -1.96446436373688
O          -0.50004514000943    2.96282684231544   -0.17605383462719
H          -0.91310700962729    2.13746253994834   -0.51376067862600
H          -0.87329041540021    3.69161426595769   -0.67594196435500
O           1.53517421309220    0.94279943867841   -0.19185166029641
H           1.20935080556627    0.37934927292190   -0.96504173511287
H           1.22302935596260    1.84405236019917   -0.34017439969772
O           2.58031751881440   -1.73128434427089    0.37986195664026
H           2.64687143334396   -1.81352331650347   -0.57440009226428
H           2.54173227730226   -0.78815981118628    0.56388894482310
N          -0.26254299766625   -2.41462487759908   -0.11257678911488
H           0.25419269655626   -1.39426878326284   -1.36743030718699
H          -0.49178575877079   -3.38180423752380   -0.30629407855927
H           0.55789494921298   -2.40688541730373    0.48898732440617
H          -1.03339898356262   -2.01055998243994    0.40798933344023
