    23
        -45.37164365  Gyration_radius:  2.43778638007 Dipole_moment: 2.056
 S          -1.01190776513842   -0.58900777525538   -1.55969526691763
O          -1.82523073826001    0.00069426721659   -0.49551220569832
O           0.39846040698930   -0.27022421817791   -1.35801848132833
O          -1.28150110811163   -1.97939636608415   -1.79433703081880
O          -1.40739940346517    0.18412129467914   -2.89826892592780
H          -2.12942530416820   -0.33559862580626   -3.23815926004711
H          -0.84395531656836   -2.58835211042053    0.10850021859490
O          -0.89656887433445   -2.05706927261085    0.91230833737363
H          -1.38807303361146   -1.27275244827378    0.61372859604313
O           1.20657625425338   -1.35224404286713    2.41302381195198
H           1.88528840763159   -2.00899418120378    2.24953314397266
H           0.39420554370377   -1.68616428292682    1.96855735080225
O          -1.38845790846836    1.94916630402009    1.22338215014165
H          -1.97869623937088    1.76013631304915    1.95501009708282
H          -1.64501858959070    1.32577670778857    0.50540235681433
O           2.43004515684307    1.63076313152768   -1.35447085038597
H           2.60674100375248    2.11157734648104   -2.16372709237987
H           1.79302887216631    0.93612896621182   -1.58559283243154
N           1.03519915681696    0.86465881595251    0.92820456848553
H           1.83437825205753    1.44793095218885    0.68086395252131
H           0.20729302458071    1.43416559903357    1.21719244690334
H           0.74841357022511    0.36766992824787    0.03710163831668
H           1.25660461210078    0.12701370722328    1.63497329693944
