    23
        -45.36630451  Gyration_radius:  2.53563532649 Dipole_moment: 3.562
 S           2.06417583404333    1.09685837563917    0.18626301938622
O           0.81523072786804    1.56533078123363    0.79145123196823
O           2.66126304438446    0.01517475998212    0.91699434690415
O           1.86016376020198    0.78479043172977   -1.22970842616046
O           3.06273868800222    2.33065553271866    0.23055256551625
H           2.58643549341258    3.04023569371188   -0.19356614597378
H           1.60120853015714   -0.85575249581412   -1.07774528495967
O           1.33291464290010   -1.76192871431512   -0.79804149320136
H           2.13197035619760   -2.13020766991391   -0.41248778784146
O          -2.69519809369898   -0.94705470266775    1.42671918469908
H          -3.08223556184848   -0.43534307019227    2.13922581891381
H          -2.85749098696674   -0.42042097557395    0.60415067716950
O          -2.93614566524825    0.57385234018582   -0.71109346896005
H          -3.57717258292809    0.42376121386136   -1.40753615325631
H          -2.05583888242448    0.56149215931145   -1.14977745875711
O          -0.63700894201000    0.23286451774967   -2.02714780461689
H          -0.44262821445953   -0.70002315162009   -2.15005274414221
H           0.21520992930571    0.63506565705360   -1.76912212800110
N          -0.02656901468126   -0.82013353445823    1.34048473768583
H           0.21060357840447    0.21345530889224    1.18883310310626
H           0.45315350205625   -1.12949198055984    2.18052068303281
H          -1.07044509549106   -0.95397536600413    1.40888005319400
H           0.38566494278537   -1.31920511094466    0.51220346385509
