    23
        -45.37814015  Gyration_radius:  2.27146715939 Dipole_moment: 5.402
 S          -1.37283454344187    0.46655456006347   -0.56932598179005
O          -0.84458321887751    0.92868490040527    0.70961391072790
O          -0.71553455426002    1.12025089760312   -1.68879982070286
O          -1.26244130198722   -0.99356781605385   -0.65102623213663
O          -2.88326090488852    0.84094408000413   -0.63907252646567
H          -3.26182175519110    0.33706876185296    0.10957149361026
H           0.22071181916340   -1.54826593362216   -0.87690576754336
O           1.17664192275182   -1.80833275980148   -0.97101954320446
H           1.18388685731950   -2.57189284519182   -1.55022508136837
O           1.74353593566994    1.68642412699751    1.18069518121216
H           0.78154466126940    1.82592902298731    1.13271529773760
H           1.81420713145382    0.84806450767069    1.67600616444861
O          -2.98361085540798   -0.83479341346930    1.40124653885352
H          -2.41896591047943   -0.36377784044413    2.02146314073503
H          -2.38288983331427   -1.26971582288491    0.77354537723517
O           0.95557530037887   -0.83557474949728    1.75183333450698
H           0.18075394528579   -0.33123790352238    1.44521014221304
H           1.15888909789558   -1.45698740068189    1.04495675901257
N           1.81798552308673    0.79668530700445   -1.27897654732824
H           1.84560790394901   -0.24178304569931   -1.22298856676942
H           0.81145128244403    1.03103522134979   -1.55767931187753
H           1.94562610317113    1.21127596982417   -0.29620786172724
H           2.48952538401928    1.16301217518485   -1.94463011938714
