    23
        -45.37758447  Gyration_radius:  2.31487498099 Dipole_moment: 5.949
 S           0.34247722289184   -1.73113899559038   -0.00631090698940
O          -1.05146086138296   -1.28940517726260    0.20978621984580
O           0.50037973866359   -2.50499807265514   -1.20180492111268
O           1.21468796467518   -0.53988785191111   -0.00418743241568
O           0.74103365435241   -2.58939887730127    1.22890000343733
H           0.37235794155432   -2.09873139173405    2.00295919136878
H           1.38045220547543   -0.17333152713472   -1.75080116689285
O           0.96506161133918   -0.27743827096127   -2.62811709280207
H           0.82674810638567   -1.23771700512703   -2.65838896518866
O           0.76568240099386    1.27612098774849    1.73734651867019
H           1.61659597448892    1.54395379970050    2.08873906633108
H           0.96005819780788    0.55876150352500    1.06513850722151
O          -0.52361900790052    2.73198224778560   -0.12767350172329
H           0.18867707783452    3.24447321302708   -0.51470815179588
H          -0.14061081169522    2.27176686764586    0.65170870341641
O          -0.55739789424178   -0.93680495968040    2.80803214716584
H          -0.14228941510110   -0.06326675248284    2.72917081381996
H          -1.13518526496407   -1.00767435603429    2.03045794466627
N          -1.29074146182004    0.58111464106479   -1.55242921193772
H          -0.46213489504053    0.32529590591312   -2.16522509261964
H          -2.15795954102371    0.62965234486368   -2.07588494973921
H          -1.32451235468178   -0.19607487981906   -0.81239255954391
H          -1.08830057861392    1.48274659641851   -1.05431516318017
