    23
        -45.37187543  Gyration_radius:  2.36173027704 Dipole_moment: 0.287
 S           0.51500249297390   -1.87325423494462   -0.33321237333324
O           1.61905642488204   -0.93543444711459   -0.26444675763914
O          -0.35817786630162   -1.78106937326010    0.82876242653136
O          -0.20553509762279   -1.78919563946786   -1.59333013493767
O           1.14430951279569   -3.32983088321800   -0.27881251679187
H           1.65023262877766   -3.34292961893955   -1.08406573032972
H          -0.88900282532448   -0.38307007821236   -1.64147816489595
O          -1.34084555409007    0.50820149708726   -1.65538556509815
H          -1.90132634777141    0.50580064896064   -2.43391843736731
O           0.69632185836462    2.31831490142776   -1.47583483118088
H           1.32032357578815    1.96827467893941   -2.11474449927040
H          -0.08582044445853    1.73536107332739   -1.51884977798587
O          -2.41547092003002    0.30553228050046    0.83666549011805
H          -2.24200586229222   -0.64300548288901    0.88274344401987
H          -2.15539146109727    0.55144429678772   -0.07079529306885
O           1.82852552656160    1.47939571442861    0.81294283817850
H           1.98707946635186    0.59438336005299    0.42227356802238
H           1.45421734013620    1.99642112665924    0.06768871675249
N          -0.12141950753660    0.44412156549305    2.16044866139044
H          -1.06215928416142    0.74554650525975    1.81673783942779
H          -0.06126669992724    0.45755396827842    3.17201990814401
H          -0.05194842926387   -0.53972953835650    1.77187836558487
H           0.67530148323570    1.00716767918864    1.69271280375429
