    23
        -45.36606637  Gyration_radius:  2.47381075443 Dipole_moment: 5.055
 S           0.22134103394671   -2.01607995596861    0.95652261517567
O           0.89964651852558   -0.80567305696178    1.44010523158654
O           0.43533305306858   -3.17647604447726    1.75791296070927
O          -1.35770487372362   -1.66561813319150    1.13090017141690
O           0.40571329366772   -2.16439164492011   -0.47538934978721
H           0.02055117926061   -1.11826464371916   -1.55320029782020
H          -1.53877025316781   -2.22427010120293    1.87846785911020
O          -0.19097435968838   -0.37532788441935   -2.19328267021467
H           0.06230038210712   -0.69966835441298   -3.05831246405525
O          -2.43958394962781    0.21570812474551   -0.65775409029757
H          -1.82632051728603    0.01570711888914   -1.38237164299163
H          -2.25192210028004   -0.44863683982593    0.01938531831162
O           3.18915880943513    0.60282242070989    0.79326840355522
H           4.02496708480928    0.38610215319167    1.20722682246001
H           2.53693927250841   -0.02383278079487    1.15019909334340
O          -1.58228462868495    2.57817811456788    0.20015781839280
H          -2.04767902072374    1.74133668054956   -0.04588223898069
H          -2.00780628486115    3.28000810281092   -0.29333648232834
N           0.69175894033331    1.20979676578285   -0.18687392450139
H           1.64078202805552    1.58199232815505   -0.13013320459908
H           0.66034457925006    0.40904433038279    0.52151999085572
H          -0.04743157672233    1.91093412815512    0.03507388593854
H           0.50164137979943    0.78660915194962   -1.11420377529990
