    23
        -45.36673440  Gyration_radius:  2.46680843478 Dipole_moment: 5.537
 S          -1.35828052209902    1.89067708901871    0.21779828927884
O          -0.32415861849303    1.45848698851165    1.16935410180817
O          -2.22049397711710    2.91475971283694    0.70977314872392
O          -0.52042048323842    2.57585717431660   -0.98726598869074
O          -1.99858745821143    0.73497850281011   -0.39254230636840
H          -1.73362349199829   -0.90697530132644    0.73050355274125
H          -0.67047395034706    3.49170266202167   -0.78008887715087
O          -0.95609420193282   -1.06492623293936    1.28509241657087
H          -0.67888121466136   -0.14419773534737    1.50054884894822
O          -0.46154169493137    0.14927706679596   -2.41552803554819
H          -1.16268255895232    0.33281466099799   -1.74274404964108
H          -0.08413487423364    1.01449543157400   -2.59652200546797
O           0.72068270418848   -3.38697372720035    1.03058268167716
H           0.64969159113242   -4.20249647087849    1.52767927503271
H           0.05611729803774   -2.78534355706135    1.39310906940437
O           2.13679434161942    1.03677720917881    0.42077547058832
H           1.22172920681017    1.31821431453769    0.67402575551863
H           2.65732800205449    1.09473098969727    1.22355274582933
N           0.96914611873101   -1.12565608591504   -0.61173793047040
H           0.21987614019969   -1.20989825009656    0.12386516398552
H           0.49627817122398   -0.74444926104981   -1.47989016212988
H           1.64307706794605   -0.40338042934936   -0.26540162960365
H           1.39865239430158   -2.03847476111572   -0.73493951506488
