    23
        -45.36147864  Gyration_radius:  2.37886052966 Dipole_moment: 6.252
 S          -0.14149599841943    1.68516986204787    0.34197113866011
O           0.31074671541717    0.67059850558196    1.26532329237785
O           0.88207338993569    2.47557028889946   -0.25194090565600
O          -0.99188441040500    0.98687483140822   -0.76062940142340
O          -1.18178818081585    2.58772249199512    1.00632425257243
H          -1.97466871593701    1.99522236828251    1.22477529283036
H          -0.73357177077571    0.02043853312236   -0.91351325733566
O          -0.43562903127479   -1.46771955807175   -1.22197689419001
H          -0.72526531073741   -1.65124453546142   -2.11775017413743
O          -3.08672136115002    0.91030705099669    1.29461760037754
H          -3.48478105042563    0.87611358215033    0.42150025476349
H          -2.62644580754006    0.04188321995869    1.42635921961845
O           2.83473539804193    0.61945777092355    0.25552629108548
H           2.15861120010130    0.47004202841601    0.93105660494999
H           2.56817891246861    1.45933430708031   -0.14021180575808
O          -1.54578578261943   -1.23977635314836    1.39243687846264
H          -1.35817062291512   -1.64805172897646    0.53837622962320
H          -0.77426443793927   -0.67049166145550    1.56824955225035
N           2.15181873170009   -1.64834170121158   -1.28046301709987
H           2.48151099890643   -0.82314800413679   -0.76352813862951
H           2.50396605788007   -2.46430105313985   -0.79528864202780
H           0.58839032352954   -1.56070613606016   -1.22368896814992
H           2.58044075306924   -1.62495412919916   -2.19752541322263
