    23
        -45.36202632  Gyration_radius:  2.42500502642 Dipole_moment: 6.652
 S          -0.76185341613515   -2.18264432932451    1.02553338610272
O          -0.86536101617982   -1.72862749424320    2.38404407820659
O          -1.13682605398089   -3.53157165925549    0.74847695232104
O          -1.83793352708338   -1.26423952906823    0.18000073541092
O           0.50855718869465   -1.76481043932726    0.39772507012238
H           0.47283211486961   -0.38944390182782    1.23992871726717
H          -2.65017904105863   -1.66872058919644    0.46671040508782
O           0.47778411231037    0.49453974167773    1.68052565565773
H           0.06377872940513    0.29820206688458    2.52745198154986
O          -1.52070442136220    0.69516765984248   -1.75448553585673
H          -1.39261637937579    1.45710604082895   -1.14517314514036
H          -1.88378801543994   -0.00472524507268   -1.18938614783024
O          -0.73833052586759    2.39044392982226    0.14743170544450
H          -0.42761252024536    1.71643625073647    0.78502917177365
H           0.02843473933264    2.92792813022951   -0.06147517267412
O           2.30879854130078    1.44796029446403   -0.08100296881749
H           3.20628461500340    1.24037581799272    0.18347084612739
H           1.74100311670037    1.20430816380281    0.67552150326575
N           0.90124563663184   -0.26766010518944   -1.67392167082420
H           1.52758267904816    0.45192575221380   -1.25751332785025
H          -0.06602831201803    0.16280124319245   -1.86242868660654
H           1.30365223119078   -0.68581300118106   -2.50470209798895
H           0.74127952422743   -0.99893878821310   -0.91176144479928
