    23
        -45.36948862  Gyration_radius:  2.28939556784 Dipole_moment: 6.845
 S          -0.03240721092188    1.54410878971499   -1.52028946624177
O           0.23641829549163    2.54506097929162   -0.51863508787721
O          -0.11420255701621    1.98518856890376   -2.87394113832198
O           1.29193552235864    0.56509920813500   -1.50366724301505
O          -1.09967980497565    0.62678356809741   -1.10278621534530
H          -1.60013185219020    0.42089300899098    0.39365929717656
H           1.81537893851370    1.11411504939447   -2.07632007912515
O          -1.87532709132253    0.13329807230686    1.30727760992609
H          -2.82704058202147    0.23856343055048    1.33859537353838
O          -0.44026208718750   -1.80139300667308   -1.73454646667227
H           0.38674142319642   -1.70291832772862   -2.21121842285374
H          -0.78583435229122   -0.87935907455226   -1.63070565413426
O           0.49155166056088    1.57849153209015    1.92234028515381
H           0.43910590983720    2.06919951498589    1.07100508535373
H          -0.39567689421198    1.22314382671715    2.05669339687471
O           1.91424834014759   -0.41585499939635    1.03573298584150
H           1.94622040844163   -0.11513019714900    0.11522152141815
H           1.51541654059125    0.35808717500987    1.52338064958300
N          -0.18196526249401   -1.93136240621408    0.89981692743162
H          -0.29795077488972   -2.05950325957595   -0.14474184236549
H          -0.93990139354231   -1.29008777663872    1.21600946013821
H          -0.19817371631851   -2.81249513926231    1.39997967302522
H           0.75153653024345   -1.39392852701838    1.03713936049606
