    23
        -45.38139645  Gyration_radius:  2.2725821994 Dipole_moment: 2.618
 S           0.42838620663590    1.09491117992657   -1.31399101697965
O           1.39744541710869    1.08619299725030   -0.23044261193570
O           0.48019762569369   -0.08928566935929   -2.14020690989961
O          -0.92128944890246    1.36618741755461   -0.81983053087126
O           0.81536387235041    2.31588557635013   -2.24352066130118
H           0.90430583943211    3.03378824290484   -1.62481842006601
H          -1.59403115630032   -0.15062621105703   -0.85339367717569
O          -1.76180595980746   -1.11926318487434   -0.89503681352533
H          -1.38143232033866   -1.36950473713470   -1.74329928769195
O           2.11157694173962   -1.54831719377287   -0.70483933467349
H           2.55527279919365   -0.80574213486263   -0.27979593840754
H           1.57470996335682   -1.11409384120318   -1.40588924355530
O          -1.77616427742699    1.71335973894234    1.67645757299864
H          -2.68450420563608    1.40753456511054    1.67387315633460
H          -1.48754324502059    1.70783536852358    0.74073350199246
O           0.48105024427707    0.32310219269978    2.15022324338910
H          -0.34095309616223    0.84739900544653    2.22400037943975
H           0.93890676328528    0.70472913629692    1.37094732747998
N           0.04070987058612   -1.91383002829783    0.90026379194408
H          -0.76776198297684   -1.70773613630748    0.25291446265102
H           0.91509331934242   -1.94557803527561    0.29909844514134
H           0.16944136945781   -1.06275349294070    1.54869012577826
H          -0.09697452989203   -2.77419477592909    1.41786243891847
