    23
        -45.36549942  Gyration_radius:  2.24693388027 Dipole_moment: 9.918
 S           1.13160266450555   -1.51903656993166   -0.96005789441005
O           1.61114430905326   -0.58236102261598   -1.95501589713233
O           1.61759152583244   -2.85407017217753   -1.00261165123265
O           1.60488820279445   -0.92661087745163    0.46160605243700
O          -0.35360497659289   -1.45930198569398   -0.87105933076627
H          -1.28556829953012   -0.26939316827074   -1.04825610433891
H           1.57193728553381    0.04251924129829    0.40984578218270
O          -1.91674864545936    0.51917276549560   -0.98345558989169
H          -2.75303027145780    0.20704884426295   -1.33143622096264
O           0.49493500398389    1.74440132736047   -1.78829594063854
H          -0.44827695986907    1.53666805136472   -1.79578874452090
H           0.95640390577718    0.88709222727611   -1.99606320854088
O           1.19899279793889    1.75853700674378    0.66020853575032
H           0.92933291378077    1.86916259963147   -0.31369155257250
H           1.99452416679476    2.27705754867578    0.78238053249414
O          -0.63922414123616   -1.97009087658051    1.61732812636563
H          -0.59495589408268   -1.96864961011435    0.62118792796794
H           0.25121771774203   -2.21688289475375    1.88349517326013
N          -1.08414253495321    0.60278612734778    1.54836944193657
H          -0.18370376962701    1.10524415329592    1.43770715317058
H          -1.57826505790498    0.66911313965091    0.61891271295467
H          -0.88608297585412   -0.45042225498023    1.70500988624453
H          -1.63896697716762    0.99801640015949    2.29968081024360
