    23
        -45.37052888  Gyration_radius:  2.28931951025 Dipole_moment: 8.366
 S           1.21903867005188    1.02623354815010   -1.43887158154510
O           1.29392410524112    1.61384275823442   -0.08588848330269
O           1.66752168398257    1.88528031376114   -2.47307246193102
O           2.17130586662380   -0.24169947087864   -1.39749405400031
O          -0.13328254325996    0.47019227738402   -1.64179277055090
H          -0.89877165958100   -0.76360269585065   -1.10748003667963
H           1.78489687570048   -0.88079454169676   -0.77654312990332
O          -1.32912276466334   -1.57779555030810   -0.70906781381829
H          -1.82395475676776   -1.98242672839547   -1.42292078777490
O           1.07010985896034   -2.15357821812382    0.25491650369934
H           1.42590394344417   -2.99483459690308   -0.03542814333514
H           0.14423960769440   -2.09586145968370   -0.08190871785307
O          -1.99886206010694    0.14042505840279    1.39207976603038
H          -2.06157818741848   -0.55777187903444    0.72181731517346
H          -2.00481495275160    0.98542337618128    0.87996838165022
O          -1.49526569886787    2.21206653518280   -0.19398339909892
H          -1.07848142702622    1.63691435439082   -0.86875433732608
H          -0.78141503565532    2.78127460884622    0.10450819908264
N           0.57598690073711    0.08709625455153    1.80836675694654
H           0.91481079076864    0.77384826149543    1.01418551722121
H          -0.50011917487487    0.09069107260260    1.76684317866923
H           0.92181346950500   -0.84799028300028    1.57771511066673
H           0.91611647826797    0.39306700469553    2.71280498799409
