    23
        -45.36863514  Gyration_radius:  2.40373535743 Dipole_moment: 5.409
 S          -0.41994656299686    0.40926040731307    2.23544871960678
O          -0.63531694936439    1.20354831557128    1.01529961546886
O          -0.82941155788849    1.04732762339967    3.44252402195500
O          -1.41827371306443   -0.85410311739556    2.06993258953943
O           0.91787691368694   -0.15890133935102    2.21862149525798
H           1.52118727402586   -0.99209762103314    1.05116844133744
H          -2.03610122055469   -0.63873118571958    2.75998535778774
O           1.90396338421195   -1.39621101716706    0.21724368327372
H           2.63811738314286   -1.94266526826464    0.50022314235261
O          -0.06842519193469    1.08304807181153   -2.93250348589211
H          -0.91077264616324    0.95788156618832   -2.40747393398643
H          -0.02140041353204    0.33534926424661   -3.53068349539247
O          -1.97553684321270    0.48310955240141   -1.26554441484670
H          -1.71932116994741   -0.44964256163274   -1.13130529454319
H          -1.72176474799802    0.91872915230335   -0.43524410800274
O          -0.78095416195167   -1.83424702504754   -0.46921185509610
H          -1.08975749307954   -1.69469117198299    0.43508024146987
H           0.18479604573627   -1.85180696969613   -0.40921027857480
N           1.31799578827263    1.08430151387786   -0.68334622262518
H           0.53015651036632    1.18682991322571    0.04345488059341
H           1.75094902121620    0.15743438535788   -0.51125568117973
H           0.86954640764199    1.11372756802159   -1.64578543404183
H           1.99239394342651    1.83254994379196   -0.56741796423659
