    23
        -45.38134562  Gyration_radius:  2.2724525313 Dipole_moment: 3.514
 S           0.87854926002249    1.46290527771735   -0.41883779249495
O           0.68753766198811    1.41290175807720    1.03056369373961
O           1.45304964341087    0.25263422145415   -0.95376669744164
O          -0.35153372975591    1.85997960095756   -1.08866273760557
O           1.92840285074939    2.61697176395314   -0.68499334699938
H           1.46857319876557    3.39363770116220   -0.38314605234286
H          -0.67544726874803    0.61826376514702   -2.14716720145692
O          -0.70250220466339   -0.26431089764168   -2.58367344966261
H           0.22935659836599   -0.48931030369857   -2.67925847654963
O           1.08795416877410   -2.05333634619197    0.34321124910662
H           1.42794312420226   -1.30179709518684   -0.18420490272239
H           1.21158436616313   -1.76494978333333    1.26962600878075
O          -1.83527055832557    0.70970291815307    0.93881584228138
H          -2.09934201109863    1.30625449356457    0.23028168134028
H          -0.90855996385858    0.98468829687443    1.12431456706866
O           1.19587757039609   -0.65719315560646    2.63799211645233
H           0.54761231812225   -0.55799528083448    3.33706027500179
H           1.13479386450018    0.15567961762150    2.09625842643130
N          -1.36333321916125   -1.56267455642730   -0.37272746397032
H          -2.04735407019789   -2.31047303843124   -0.37872170192428
H          -1.20687368898346   -1.15878902970542   -1.34186744370079
H          -1.66453072550955   -0.75648992130401    0.23714656792630
H          -0.39648718515308   -1.89630000631752   -0.02824317125850
