    23
        -45.36716541  Gyration_radius:  2.26743255977 Dipole_moment: 4.139
 S          -0.97529516754932    0.94545268297182   -1.47211399026469
O          -1.75855635303885    1.00383659456389   -0.24973089903645
O          -1.73214449954673    0.70141742105116   -2.65744792679713
O          -0.30803701149915    2.40320950432154   -1.64409247962144
O           0.18133301713426    0.05418648376266   -1.29820431873125
H           1.06954995539717    1.04163820159006   -0.27222960011612
H          -0.82545540426956    2.78774548203040   -2.34484034960127
O           1.51898939028282    1.55062881411702    0.43481034620128
H           1.42547588939005    2.46817834193945    0.17130850554778
O          -1.63578182054529   -1.74265681297036   -0.51205610973402
H          -2.41066271944130   -1.17632774916448   -0.43738507681692
H          -0.98916164493754   -1.19942502529115   -1.00032707837227
O          -0.50217317001388    0.73853606621408    2.00990141141236
H          -1.11334401202405    0.91690000221093    1.25124371223431
H           0.35210950846759    1.10391059531662    1.69796778022098
O          -0.22722837318790   -1.71343949341102    1.64907589591853
H          -0.37209446343646   -0.69401036537068    1.92531913846362
H          -0.87327865260236   -1.85824814193874    0.88276029357379
N           1.92382870475221   -1.48691446513379    0.34942773336262
H           2.49301429823111   -2.28301306395296    0.09458748635578
H           1.50078003829066   -1.09268485413894   -0.49076033703991
H           0.74461775937730   -1.70135419503001    1.16108930288950
H           2.51351472076899   -0.76756604368694    0.75169656995049
