    23
        -45.36915702  Gyration_radius:  2.27712944081 Dipole_moment: 8.123
 S          -2.00536599197497   -0.41913434587827   -0.52615330220024
O          -2.30915507121075   -0.44681610650347    0.91895945192660
O          -3.08527719617624   -0.75746667151686   -1.38005390816953
O          -1.61246913529801    1.08533720338933   -0.84852056728404
O          -0.77264536116369   -1.19139774477792   -0.76621769796719
H          -0.07693341777073   -0.47800446333727   -2.12125930230389
H          -0.90410671972138    1.37129618581400   -0.23794594098048
O           0.41226655972913    0.12706530943789   -2.71823151037941
H          -0.22199352369777    0.80471694407500   -2.96116764342589
O           1.32988581298183   -1.76913557075015    0.58087110424489
H           0.52990669731227   -1.60660515459279    0.00603884893956
H           1.54491430213913   -2.69642098043067    0.47322696510150
O           0.45285710102969    1.92060073506893    0.67692121180839
H           0.57968188055295    2.86134888423715    0.54764600575176
H           1.16939207335466    1.45872228729572    0.12816315765703
O           2.14285187372267    0.60505726201648   -0.73565324282255
H           2.14847417350392   -0.26808524523095   -0.31702125222552
H           1.64667195307670    0.48198530309155   -1.57811537076103
N          -0.17208718142297   -0.21977365362633    2.20994279930587
H          -1.16251945841180   -0.36634528703143    1.67396017684256
H           0.49717177938199   -0.91242279922208    1.82334294181520
H           0.14362942045255    0.72270881767073    1.93705501213940
H          -0.27515056045520   -0.30723089920507    3.21421207296933
