    23
        -45.36535418  Gyration_radius:  2.30047296863 Dipole_moment: 9.904
 S           0.69335157210187    2.06209710515580    0.30233227561260
O           1.41839853540986    0.90310466215515   -0.26547459494856
O           1.54119590088060    3.10769785462732    0.75400985341612
O          -0.18203243098792    2.60753084949538   -0.90099071856919
O          -0.27307800375455    1.57447309446067    1.29638427980264
H          -1.06736230621409    0.36615006641212    1.20272941950285
H          -0.78578303092368    1.87605167828109   -1.10298225948246
O          -1.69542472283545   -0.45221536252638    1.10426538816656
H          -2.22723059615114   -0.44363345985309    1.90112158221951
O          -1.99485707354340    0.58959174619367   -1.37127626605719
H          -2.81201611020271    1.07427156442365   -1.49901278745835
H          -2.03804470171090    0.17789251354656   -0.48358991040526
O           0.39908622939017   -0.75319636907197   -1.97186746366643
H          -0.46630177950245   -0.36440247933257   -2.14961293105934
H           0.88874584753227   -0.05357799703355   -1.46274481434564
O           2.26312003847689   -0.88059879380381    1.37854445247330
H           1.97724075842697   -0.08303274429612    0.85155607198872
H           3.20162912335655   -0.97519361078687    1.20837551747780
N           0.22638389340621   -2.10832923460571    0.24732654602885
H          -0.58221526112996   -1.62089742093859    0.69704244861841
H           0.29477033309550   -1.70048372039768   -0.74699389477430
H           1.09830715611170   -1.78736105759264    0.75572937375138
H           0.12211663876824   -3.11593887451238    0.25512844170731
