    23
        -45.37210794  Gyration_radius:  2.38252732081 Dipole_moment: 4.600
 S           1.19428201332673   -1.32532510197435   -0.28750326229393
O           0.80939040143402   -1.28191783664534    1.12618695171065
O           0.03661120425843   -1.41115519785155   -1.14294952042093
O           2.09001440023302   -0.22876710603888   -0.62076113825170
O           2.03798826758079   -2.65096291250369   -0.49126634654115
H           2.90106666629493   -2.40490241982095   -0.17235280259153
H           1.36826074122985    1.19652327806447   -0.61965673352791
O           0.82613304940654    2.02836824604268   -0.55115953033437
H           1.43390774069715    2.71873568875683   -0.28207143520844
O          -2.61108419575360   -0.24143183490602   -1.12150576549039
H          -2.12835273271872    0.24567843700684   -1.82874739635994
H          -2.24345838216574   -1.13102661772068   -1.17492931157155
O          -0.06295507605773    0.13584022256889    3.37153044670141
H           0.39972048560919   -0.43376214437944    2.73765454071450
H           0.08093995153012   -0.25314547361919    4.23491264504383
O          -0.65144960738742    0.74368032822467   -2.63488535030879
H          -0.24978722567391   -0.08286534931919   -2.31041487532265
H          -0.16905569999091    1.45017060810846   -2.19011357654218
N          -1.03694658500041    0.60265647886613    0.80354339842439
H          -0.39314685780488   -0.22125660933147    0.92056598715093
H          -0.45903868105596    1.35471307415218    0.37641495018593
H          -1.81181767730771    0.32008071373675    0.12530451526563
H          -1.36122224068906    0.87007149857031    1.73220361956749
