    23
        -45.38060701  Gyration_radius:  2.2577277839 Dipole_moment: 4.795
 S           1.01985500757851    0.72979726495075   -1.42989630049318
O           0.06113937449897    1.72293406900667   -1.84977425749344
O           1.61499368518695    0.96572662947375   -0.13027280893327
O           0.47774148903649   -0.63356001864389   -1.51626339458105
O           2.19780947855051    0.79396091577437   -2.49116038009499
H           1.79319502103226    1.31409410818926   -3.17668618983866
H          -0.98468388245360   -0.94284021871856   -0.94080118136285
O          -1.83825747748069   -1.16139737102712   -0.48028713463098
H          -2.30144736948151   -1.76944373059723   -1.05810510091732
O           1.84203618712303   -1.63711827389093    0.48297366356919
H           2.29868082155139   -0.79442159615317    0.61344909963407
H           1.39689785811859   -1.49164923000458   -0.37999263484698
O          -0.10444131684776    1.38245626155775    1.85307561408297
H          -0.87450514101922    1.65934603228614    1.29863020324250
H           0.64869068189607    1.40429566213796    1.22628674410342
O          -1.91532507507449    1.64686060839505   -0.04917236306448
H          -1.27063923006915    1.83171595456333   -0.76079641149541
H          -2.21016514606967    0.74033600545311   -0.20480196204410
N          -0.38480914548636   -1.17938631368857    1.82632592706495
H          -1.11147575000539   -1.32790950291357    1.10365366299849
H          -0.29736493792478   -0.09643681555761    1.96922192937224
H          -0.60124680252356   -1.66721265902024    2.68758350046410
H           0.54332166986530   -1.49014778156964    1.40680977526519
