    23
        -45.37493207  Gyration_radius:  2.39750941431 Dipole_moment: 1.890
 S          -1.23143909863583   -0.87176055542750   -1.11860127310159
O          -1.49742563192154   -0.76805642632374    0.31051371193167
O          -1.14097735471121    0.41345200354648   -1.76805908597944
O          -0.07362452230289   -1.72345319399153   -1.37517042088464
O          -2.48594492457804   -1.60894623046743   -1.74807213336907
H          -2.58697548871073   -2.38999648764321   -1.21128818016741
H           1.14680062828785   -0.50049316222601   -1.60759302179315
O           1.62654960825855    0.33162384900279   -1.42759819308411
H           1.08660844721092    1.01360388755028   -1.83822945017620
O           0.22102567056188    2.27226919301616    2.35972602183905
H          -0.54121281711535    2.20984136723490    2.93805622750291
H          -0.13163922835200    2.49093861623373    1.47402199240685
O          -0.85372998855236    2.47561810039115   -0.12699259887007
H          -1.44248061702619    3.14959687243406   -0.46882429465170
H          -0.99123535858837    1.68975752081825   -0.69926976235188
O           1.49735525495412   -2.59632114854396    0.64665546353060
H           2.21527011801427   -3.08604418206935    0.24301852597917
H           0.88035696989764   -2.38128310413421   -0.08163048453438
N           0.88145054504783   -0.01581487866768    1.12892928011137
H           0.86104697902873    0.77789201860496    1.80123418928005
H          -0.11463603828303   -0.29752262205727    0.91008096114848
H           1.30872522438064    0.28017967279150    0.21621288223657
H           1.36613161313621   -0.86508113006045    1.44287964297394
