    23
        -45.37000908  Gyration_radius:  2.25972238884 Dipole_moment: 3.219
 S          -0.43142300237049    0.97231058599817    1.63192132310753
O           0.67803601258866    1.10997031079332    2.53061274308846
O          -0.44839840356926    1.93774866054790    0.54209995102709
O          -0.59730540317321   -0.39150551451749    1.11197003400569
O          -1.75325365135378    1.23787833744917    2.48356765986337
H          -1.45021090707601    1.76611831904477    3.21566776702325
H           1.14253759820452   -0.50480529468169    0.98874518018973
O           2.08021860019918   -0.47334888611301    0.72755890016823
H           2.49692085141541    0.02011207650280    1.43978350170720
O          -2.17928005509990    0.43461077813126   -0.81753755166239
H          -1.80769533890167   -0.03335825731665   -0.04016853896901
H          -1.95695626923109    1.35638576907697   -0.61964974313251
O           1.34731994003532    1.22344846872833   -1.23736678344539
H           1.85563420846020    0.61969193394915   -0.65691454931569
H           0.72703365268086    1.67981145376812   -0.62205248163641
O          -0.28757721740300   -0.31962848972260   -2.34577724815044
H           0.44090496988866    0.36390671682824   -2.01213173088009
H          -1.14683393731901   -0.00434210595911   -1.87828318838243
N           0.27644441309688   -2.29020552461690   -0.86759587997057
H          -0.03705228126150   -1.22972929258003   -1.81795760085288
H          -0.17830134882786   -1.93741386740970   -0.02627144002699
H          -0.04354114426576   -3.23221854159325   -1.04944989896345
H           1.27277872328028   -2.30543764630819   -0.68077041479283
