    23
        -45.35001160  Gyration_radius:  2.45372198033 Dipole_moment: 5.840
 S           1.59471948518841    1.36011429557173   -1.37736920139754
O           1.70150693720865   -0.06912593933885   -1.42691228992622
O           2.29487062862837    2.13290846261945   -2.33252852458419
O           0.06772594429539    1.72198057702414   -1.42448837406642
O           1.98928303455622    1.85622928983387    0.04780191919423
H           1.51195636151802    1.30508804321150    0.71140831919063
H          -0.49420088323387    0.88961391682083   -1.40264255430551
O          -1.55953220085914   -0.28452818262826   -1.27161830054944
H          -1.93639903447457   -0.45294315699635   -2.13606879578780
O          -0.02947485338525   -2.04434383818235    2.17964572508472
H           0.30202811883086   -1.13555096281688    2.09934117642261
H          -0.89906382819186   -1.98357581006369    2.57875968023988
O           0.49676695226427    0.69111304516102    1.89128876520754
H          -0.39630372748186    0.97175027591365    1.55033216759449
H           0.66459179290692    1.20506226110415    2.68407687137163
O          -1.77521942075077    1.45951023496115    0.81851695597148
H          -1.52287241904895    2.21633678741726    0.28045229597333
H          -1.94853163097834    0.74526446822422    0.18100621750549
N           0.00824745058306   -2.22651459518236   -0.71855292127517
H          -0.97194715794389   -1.11682769062539   -1.03745397638923
H           0.00064914042923   -3.11243217683392   -1.20574506411264
H           0.85611065857034   -1.72259413068391   -0.97283348964205
H           0.04508865125080   -2.40653518445775    0.28358336826984
