    23
        -45.35625906  Gyration_radius:  2.33333185212 Dipole_moment: 5.623
 S          -0.56375270066980    1.40453227999489    1.66761770219211
O          -0.42069758490005    2.33388283382489    0.57081216507360
O          -1.01395967473431    1.89018141856382    2.91533792601251
O          -1.50940267505070    0.26268507668797    1.18642327013066
O           0.78683191525884    0.64682333012421    1.83364412475321
H           1.44054777317283    1.02378432675396    1.15352618837821
H          -1.47261427647084    0.30086916877027    0.18209359842231
O           1.22211827446859   -0.24943274585618   -1.72986964329837
H           1.58272519810983   -0.69285138295829   -2.49849723166224
O           2.10246579154979    1.70565983712584   -0.06725200865181
H           1.94184741510135    1.06256788269171   -0.78566872501465
H           1.37675514827831    2.34693925113904   -0.10858995901894
O          -2.05573961753740   -2.12424473830739   -0.34667463652762
H          -2.16394956018546   -1.46724269193713   -1.04096253719742
H          -2.37188056041638   -1.71178336776806    0.46250610644280
O          -1.28432654031573    0.63097697866749   -1.34889056261689
H          -1.15217913315015    1.56158810769225   -1.11891012195359
H          -0.39873664762845    0.29952219501029   -1.61868779470599
N           0.80034795815893   -1.92793950509321    0.20898948603176
H           1.36944835882270   -2.74916536827941    0.36700777748523
H           1.13025021464929   -0.95261082153613   -0.99490998222330
H          -0.16282656669488   -2.23022677447716    0.05793403126012
H           0.81672749018353   -1.36451531082532    1.05302081667855
