    23
        -45.37131534  Gyration_radius:  2.41958172401 Dipole_moment: 4.621
 S           1.91036371817143    0.45136299669074    1.11206217092928
O           0.87766270549139    1.46231392873229    0.83779650676047
O           2.77608483284176    0.27231353441118   -0.02409780677365
O           2.81281950953732    1.04207487566503    2.28568993946188
O           1.32204993660460   -0.77625269933101    1.62399290657051
H          -0.31695449237845   -0.38733487109590    2.18300276880166
H           3.64522957169351    1.23642013624736    1.86374387356357
O          -1.10724592348241    0.17557502739395    2.07176699548645
H          -0.71105732686191    0.99535667195191    1.73532071998354
O           0.32215497269138   -1.81716564230507   -0.61201507684831
H           0.80106881208330   -1.63170279692109    0.22230219769750
H          -0.62295910828807   -1.77677058588442   -0.38560177954687
O          -2.25452257559516   -0.98928860424645    0.04806755168452
H          -3.03898653773226   -1.42820713204507    0.37963913861366
H          -1.86337922241720   -0.50441175613138    0.83466056780439
O          -2.15209537465342    0.58743011495952   -2.15212831129726
H          -2.29138906970887    0.07125786676826   -1.32967695507128
H          -2.52050749159271    0.06380258219576   -2.86531243874338
N           0.48331240283999    0.61032652745457   -1.59952961573828
H           1.23777725590163    0.85602229586511   -2.23149845657513
H           0.53678953130694   -0.42661627382401   -1.33791815080868
H           0.62243077439946    1.11613333769658   -0.67822349817969
H          -0.46864691085173    0.79736046575553   -1.98204323776758
