    23
        -45.36660446  Gyration_radius:  2.42144865045 Dipole_moment: 4.567
 S           0.13510493664791   -2.09428769947938    0.67113904890468
O          -1.04283639974374   -1.37602650168276    0.19533170835246
O          -0.12886624890471   -3.33642897701992    1.31613736242428
O           0.94712174713052   -2.46918344854043   -0.69183233487014
O           1.04768082148983   -1.18785359872451    1.36615264952179
H          -0.24686061490305    0.02161731606485    2.55900214147483
H           0.70974414202655   -3.38429245875517   -0.80603552736296
O          -1.09890061483646    0.33468547727932    2.23705496214450
H          -1.29853351202558   -0.26788691100297    1.49630713228889
O           0.25654675499218    2.02102104197326   -1.31557896802914
H          -0.10086951323762    2.37042797997949   -0.46620508036100
H          -0.43697829869984    1.42962903256806   -1.68166416460380
O          -1.37360552377437    0.02486911670684   -2.00070221267569
H          -2.32196029051684    0.06842275757542   -2.13054205704278
H          -1.24007272085739   -0.54187645196943   -1.20726564930234
O          -0.72100701197110    2.68999531460380    1.06066695658960
H          -0.85789906498274    1.83979620829651    1.54496506222168
H          -1.51181891513361    3.20980818780090    1.20723515422574
N           1.87927303665300    0.13740805396379   -0.67571708584711
H           1.22904922239581    0.99586125738720   -0.93330932673053
H           2.85274121558806    0.42000884488994   -0.62073255609260
H           1.56605397443371   -0.30928320519497    0.24853622196216
H           1.75689284823045   -0.59643131668126   -1.37294343724103
