    23
        -45.36350864  Gyration_radius:  2.28662301915 Dipole_moment: 6.438
 S          -0.14697125874384   -0.38556119694519   -1.92971457657513
O          -1.54636222294992   -0.38765191187858   -1.54279657181695
O           0.14283315112202   -0.25997659863091   -3.31385943186064
O           0.50490349178184    0.87060352044613   -1.18929564847651
O           0.53981268388429   -1.54299408345350   -1.28095833623020
H          -0.56267763823431   -1.69259018374537   -0.00126646134251
H           0.01279368068765    0.94162575383159   -0.33513945019606
O          -0.95202910469544   -1.65028333470981    0.90086877046793
H          -1.89673571211950   -1.74395023317007    0.75859193112904
O          -2.78871302844620    1.52084331343994   -0.23566436517811
H          -2.44503847253811    0.77895485788844   -0.78672082934216
H          -2.98304246910150    2.23230023685976   -0.84682607220459
O           2.07957238044733    1.45859841455282    1.09735935026251
H           1.16538737267219    1.56282419215183    1.41244493073158
H           2.06823820186450    1.77752666246338    0.18768878906951
O          -0.61842553444119    0.99675243520389    1.19540865787498
H          -0.78828912483702    0.03260146602506    1.27727991709430
H          -1.47262694671676    1.37062813319457    0.89229482981270
N           1.96500237701098   -1.18027539827064    0.76900264367670
H           2.11073148508680   -0.14187814308441    0.93273956344047
H           1.33794667930433   -1.55711127048790    1.47866629010839
H           1.42833531686264   -1.31647766171414   -0.20199589957157
H           2.84535473209234   -1.68450895995158    0.76189197908693
