    23
        -45.35957548  Gyration_radius:  2.45889491007 Dipole_moment: 1.920
 S           0.30236892360530   -1.12560774168120    0.19559034329975
O          -0.57762266145778   -1.12514140261661   -0.95201534810470
O           1.17169647073150   -2.25051145226963    0.31018471863479
O           1.17665213174293    0.16986373125972    0.13592832851118
O          -0.51413000303435   -0.90059436330692    1.45634909598130
H          -1.47679845203355   -0.51717218014766    1.13634530646071
H           2.02040185807962   -0.08055474683539   -0.38049648460382
O          -2.58524574218967   -0.02279364319291    0.45925852889067
H          -2.30023688656982   -0.35441630348676   -0.40521176272496
O           3.12159456465001   -0.81942928232125   -1.14918466359293
H           2.58102321240958   -1.22497885354240   -1.87019334834494
H           3.30744708969046   -1.54026697585948   -0.53838461138357
O           0.19551727903584    1.86216720099668    2.14133217499510
H           0.69584568563686    1.41286761300344    1.44650471198739
H          -0.11776813882509    1.16184888382716    2.71957597543175
O           1.29911531926800   -2.07459234738806   -2.62281176274286
H           1.34480862383635   -2.99069840882875   -2.33808935289595
H           0.51132164056203   -1.70730319499657   -2.18194269410753
N          -2.03241625964500    2.53781283053684    0.46479178398216
H          -1.70801963422053    2.90930734418931   -0.41893631667729
H          -2.45231022832901    0.98653497576022    0.44453401856603
H          -1.23797910724974    2.52007204584927    1.10865082598034
H          -2.72526567570465    3.17358626106176    0.83822052244749
