    23
        -45.37041976  Gyration_radius:  2.39737390184 Dipole_moment: 2.471
 S           1.46725475608378   -0.97089323446601   -0.81731355925908
O           1.22959719558094   -1.43121239500431    0.54891173655730
O           2.54854513108378   -1.59803476350387   -1.50254501620984
O           0.13249419909272   -1.44164526452539   -1.62951723702433
O           1.41124765058955    0.48365999536332   -0.88065336784726
H           0.18353184706959    1.28893101908234   -1.62836713541487
H           0.50429186050188   -2.18842526999758   -2.08588868230691
O          -0.58818918671632    1.80575920779142   -1.96073765666214
H          -0.45446551402958    1.90772732215044   -2.90359605847390
O           0.04887145641541   -1.79821373287881    3.08036541214875
H           0.49375074952569   -2.30630965867861    3.75958025418023
H           0.58663344017685   -1.88463284936552    2.27977825647118
O           0.50595293496156    2.50792210349351    0.69302799621236
H           1.13073511761606    1.93102803839649    0.21882419766503
H          -0.02122007760532    2.91831252176553   -0.00061345179421
O          -2.22354639555907   -0.05986727280608   -0.88926958825309
H          -1.71416168015718   -0.79424336444669   -1.25419675782855
H          -1.85972578070706    0.73131692152491   -1.33527985284244
N          -0.69890062011769    0.19133808975739    1.28131072120521
H           0.09726946566110   -0.43310871725558    0.96762396421587
H          -1.47237094794377    0.09130232442079    0.57449656188918
H          -0.96826405699002   -0.12645668330089    2.21216188877997
H          -0.33933152453655    1.17574567247864    1.27189736459682
