    23
        -45.38220949  Gyration_radius:  2.27972349392 Dipole_moment: 1.531
 S          -1.34551085373070    1.05738028834423    0.83424526120318
O          -1.18313695028457   -0.22408785660499    1.52285651130472
O          -0.33298927192694    2.01607104482526    1.17284457425987
O          -1.47786810224423    0.84384985537821   -0.60879438178021
O          -2.73287669638693    1.64154096465423    1.31614465326222
H          -3.35675132493498    0.96780363893146    1.06454130583377
H          -0.06413182310000    0.85848527908673   -1.43995623451013
O           0.80063003127521    0.78495846780279   -1.91180043060768
H           0.68400363650423    1.23941140339410   -2.74745661953912
O           0.96408500933988   -1.90209389589803   -1.24376833004163
H           1.04906902941129   -1.05586790278713   -1.71422848295546
H          -0.00511893215484   -2.06150845844027   -1.18404309241241
O          -1.65960655083689   -1.80672989883557   -0.70584251516340
H          -1.70075494160409   -1.90870016986318    0.25054782943248
H          -1.69330160378222   -0.83827509544802   -0.83707105997401
O           2.14734064777868    1.48637109707949    0.39850406954711
H           1.34489724272133    1.90955035175844    0.76676234087176
H           1.94928596223901    1.37838217931188   -0.54649491422843
N           1.33845363532193   -0.89614601522867    1.14752619180544
H           0.34832861357153   -0.66769856390282    1.42928197335475
H           1.28681843387202   -1.43358737205811    0.22230860260280
H           1.82210244584756    0.03336889972577    0.94420798456621
H           1.81703233312110   -1.42247822118242    1.86968476320686
