    23
        -45.36750470  Gyration_radius:  2.55718633671 Dipole_moment: 4.004
 S           1.24125779981887   -0.81688827710538   -1.86930232613164
O           2.05154288990072    0.37364518875099   -1.75869318515776
O           0.90871779552620   -1.36952696046751   -0.55525005327658
O           0.06036947069298   -0.61336675766963   -2.69445109224710
O           2.11018069091570   -1.94028668310695   -2.58338480089870
H           2.31351818312310   -1.58436018117878   -3.44427212996574
H          -0.64719757516551    0.60315158474971   -1.97003638268375
O          -1.00479371648158    1.35431161355737   -1.41974114617517
H          -1.03027578355458    2.11097424580129   -2.00776752254743
O          -1.71214844840929   -1.15287730471785    0.01106321278842
H          -1.94199208973429   -0.38977777335595   -0.52695170072889
H          -0.81208539336571   -1.41094870517131   -0.26593058747989
O          -1.52579670454145   -0.90915769103602    2.65264536306620
H          -1.68441443594054   -0.98381000702788    1.68080590198382
H          -1.17902647941445   -1.76118772500819    2.92118608262650
O          -0.03623191350302    1.22204606283622    3.03746978570663
H          -0.58486387634608    0.39622117417524    2.99356253145808
H          -0.63773618638732    1.92151911092989    3.29711396521219
N           0.82772213324684    1.01294521289494    0.52962811048498
H           0.57119097808641    1.17899481357385    1.53930567660755
H           1.70590186762424    1.44407321646340    0.24654052528965
H           0.93124207478862   -0.01629411920927    0.31294307482812
H           0.07491873906063    1.33059995131164   -0.12648328282287
