    23
        -45.37099177  Gyration_radius:  2.36754173314 Dipole_moment: 2.880
 S          -0.50845612400079   -1.05503351292551   -1.48680263392082
O           0.11129257278954    0.27301982638021   -1.46854771777624
O          -1.87249020102839   -1.05328214841486   -1.92215814427026
O           0.32232532028934   -1.87141637620369   -2.57520502714141
O          -0.28436196591605   -1.73439830556027   -0.21312515264302
H           1.39302487207258   -1.34068575988906    0.02409939069028
H          -0.34756205453935   -2.36493689584998   -3.03774892891831
O           2.20339764463858   -0.80622322713918   -0.07702008024122
H           2.03740484189474   -0.32125932150122   -0.89357092985955
O           2.33308192738878    1.12420628827547    1.76041821219501
H           3.15189307762596    1.60297578439595    1.62760222635687
H           2.37557604813198    0.33485660919734    1.16606094981570
O          -1.30389995349906   -0.81268927203097    2.01152864375314
H          -0.84666644601455   -1.27682102243153    2.71570121562345
H          -1.06146682164507   -1.27950756912274    1.17783293000339
O          -2.24330838583793    1.64580288899253   -0.93014803036230
H          -2.97366206274554    1.03422900647085   -1.04696144943604
H          -1.52030341661881    1.24607609321739   -1.43108332321629
N          -0.19137151396972    1.36009716132140    0.93768199841784
H          -0.02940837208967    0.96051425195838   -0.02635364301015
H           0.73808180005826    1.54287767646435    1.37261759001881
H          -0.78755594893852    2.17800053441177    0.83051292796821
H          -0.69556482804861    0.61359728997849    1.48466897595255
