    23
        -45.36071134  Gyration_radius:  2.34757944805 Dipole_moment: 6.000
 S          -0.38554679706559    0.15150298309784    1.60444473223971
O           0.09930764993933   -1.09085316518439    1.06138146337830
O           0.52484591973526    0.82606402439516    2.47333959289932
O          -0.75664563444035    1.08829857193349    0.39964718351450
O          -1.74113967387333   -0.01727756698308    2.26862080941737
H          -2.43673966206318   -0.21083740453483    1.52342599323337
H           0.04850493623128    1.22914442308447   -0.16867754008473
O           1.44578019522717    1.38299098402889   -0.96926524598426
H           1.72738716232707    2.29857246926693   -0.91921427253907
O          -3.25996107001553   -0.37514208074835    0.29546536785773
H          -2.70243328981496   -0.99966757388552   -0.25764268791191
H          -3.21323669985826    0.47739414279947   -0.14573256949311
O          -0.04861265739330   -0.18963802929302   -2.74891025689703
H           0.48852164210322    0.40731960930244   -2.20724570659793
H           0.56108854935881   -0.72825110154090   -3.25656095967547
O          -1.48518720521353   -1.76073962861600   -0.99370067198830
H          -0.84495283407949   -1.71703752272370   -0.26002948065271
H          -1.09921932317358   -1.21951895602428   -1.70658846153809
N           2.72507286392802    0.04904151966426    0.85379962225212
H           3.71031891197204    0.02407549020814    1.08742795321337
H           2.39618793170018   -0.90397912696899    0.74469790155980
H           2.20855033158792    0.42098773803542    1.64997833705385
H           2.03810873287718    0.85755021068345   -0.32866109326769
