    23
        -45.37508284  Gyration_radius:  2.36632794023 Dipole_moment: 4.025
 S           0.27878017566496    0.47504325117789   -1.95117625669993
O           1.48466919507598    1.23547786112398   -1.70536476129202
O           0.39108871221737   -0.92816239343092   -1.58853452366182
O          -0.90314951441762    1.09334757165039   -1.35174323746903
O           0.05771863059279    0.49961042220089   -3.52504627234351
H           0.49004308163984    1.30701004002778   -3.78441038329098
H          -1.90205545367492   -0.19627986441156   -0.85514980995757
O          -2.09182940768006   -1.11012767267158   -0.55831002236898
H          -1.34609698206796   -1.59323365958295   -0.93912807142187
O           1.92228760948476   -1.57130093948695    0.40506026691371
H           1.45105678254418   -1.29411374739096   -0.42149525986751
H           1.81624127093988   -2.52337995163038    0.45383931913305
O          -1.83048566895123   -0.85711229449108    2.02962154463120
H          -2.56842017107374   -0.30041765601248    2.28278204018005
H          -1.96175188281979   -1.04473387922769    1.05686531744469
O           0.53313956692444    2.22770921508197    0.52026025402384
H          -0.26848675806972    2.03563210591372   -0.00506556784541
H           1.22212654814654    2.07360237450858   -0.15592040869091
N           0.65137447465039    0.09448421926250    2.04329463217634
H           0.63046767325749    1.01343142342988    1.49001492269120
H          -0.33630600088643   -0.27198379512804    2.12280400302337
H           1.21391323266534   -0.59696729995173    1.47831727340655
H           1.06567487583914    0.23246467902491    2.95848503128555
