    23
        -45.36535397  Gyration_radius:  2.30057272028 Dipole_moment: 9.906
 S           1.70876532000128    1.37879817710671    0.06980991154109
O           0.64753579665417    1.24779409634893   -0.95395751225297
O           2.87473237590564    2.04597813096133   -0.38994012065517
O           1.04660875063046    2.25276361892367    1.21404395707861
O           1.94682194155846    0.06088357626634    0.67511666685950
H           0.94002091089350   -0.93300901518884    0.98537154099277
H           0.30865125654449    1.70813774909313    1.52896238777716
O           0.21692734944286   -1.61377144141776    1.28241889200293
H           0.71131057422479   -2.32698123226887    1.68827777864120
O          -1.86956298031116    0.97416356240246   -0.42068009146764
H          -0.95061614656448    1.25325358924537   -0.67746923818142
H          -1.88926906209124    1.05689695938631    0.54079031460328
O           0.80296793065514   -0.74237742834231   -2.57058790767924
H           0.90151199188061    0.03800846295887   -1.95682842663963
H           0.77062996769239   -0.36959715031708   -3.45297649372923
O          -0.94856814877851    0.63964332083975    2.21208767971032
H          -0.58139277852144   -0.24428351858239    2.00400712160698
H          -0.86075903249964    0.76742019172271    3.15815742828375
N          -1.17967933686151   -1.47178765628747   -0.99783688248416
H          -0.44865047192063   -1.31035648589610   -1.74704852421932
H          -1.85975952282608   -2.17344334229865   -1.26494709029208
H          -0.66548316238477   -1.72822088367810   -0.12403652357879
H          -1.62274352334199   -0.50991326097789   -0.80273484790803
