    23
        -45.36939149  Gyration_radius:  2.25495603428 Dipole_moment: 9.921
 S          -1.30621749069518   -0.64136156449413   -1.54290569335761
O          -0.70270951759883   -1.65690130464274   -0.67537361855192
O          -1.77310587200783   -1.11781389285943   -2.79577369906167
O          -2.53381700658333   -0.05590644130757   -0.73458788616190
O          -0.36325703755168    0.50403273928026   -1.66964120170935
H           0.05318383770287    1.43893085863248   -0.58414573885976
H          -2.18916087556155    0.16536453526840    0.14611139930374
O           0.37362311874626    2.03904009939068    0.17779911572572
H           0.42560860294646    2.91786040595739   -0.20029580216541
O           0.00788763952617   -1.36252299014012    1.78768241011124
H          -0.62934948604025   -0.70315106561463    2.09064036578721
H          -0.32306889854490   -1.62770213678823    0.88757817614955
O           1.69443640602239   -1.08444095000506   -1.69226090276142
H           1.03599698297567   -0.39491376578776   -1.93714841174734
H           1.11900696931961   -1.83955780274089   -1.49996185643690
O          -1.58063775507739    0.92772711660845    1.64434098147485
H          -0.87606482753008    1.45926679735510    1.21575291884155
H          -2.27350790607825    1.53335118341932    1.91294368045957
N           2.00355113185031   -0.08970534375411    0.71129908153933
H           1.26736444390804   -0.64830720079657    1.27160790398796
H           2.91677522943716   -0.10316052295558    1.15019798103626
H           2.01948322074502   -0.53054871713615   -0.27124545063240
H           1.63397908010018    0.87041998312337    0.60738624703168
