    23
        -45.35094036  Gyration_radius:  2.37625678662 Dipole_moment: 8.137
 S          -1.67727080528293   -0.80846126665111    1.40705885772906
O          -0.26945481115796   -1.05011520526864    1.22565757806123
O          -2.20565861799909   -0.97868401601786    2.70765933977281
O          -1.97105252028421    0.63938366046422    0.86991453579225
O          -2.47616256977520   -1.66845550759297    0.40105843889192
H          -2.17833140934624   -1.36608903852232   -0.49637989121699
H          -1.12923985566769    1.15870630357947    0.79033269523476
O           0.71470580573460    0.64911495806712   -1.81298452758443
H           1.19377745574330    0.87864391564668   -2.61038651376795
O          -1.73755023578342   -0.50283661466260   -1.80695224479028
H          -0.82599661660687   -0.14115380116862   -1.82547458215796
H          -2.32767315051188    0.25140437204883   -1.73810092339978
O           0.14338873303198    2.09660107750772    0.35677570103722
H           0.42387262830123    1.61596022142326   -0.45634664405444
H          -0.15971946541781    2.96530876103042    0.08548585789258
O           1.98965718841479    0.46462736446423    1.90205099476414
H           1.58671754664994    1.29157268376339    1.62151752844785
H           1.25912175881674   -0.17025144819573    1.90822385889858
N           2.01626770635038   -1.14961819376927   -0.50902765766383
H           1.22758331478378   -1.52958210323364    0.01036552478824
H           2.56961139690937   -0.64530432772189    0.18086420318425
H           2.56651510300408   -1.91740206593077   -0.87138463796825
H           1.26689141009574   -0.08336974925627   -1.33992747189759
