    23
        -45.36870025  Gyration_radius:  2.2600395454 Dipole_moment: 7.768
 S           0.93788809067088    1.42424747399233   -0.42509831529725
O           1.81735356424026    1.44852310898107    0.75058848273068
O           1.04876909751510    2.51812593083231   -1.32567413245185
O           1.40807150383005    0.13349734916772   -1.24922681017985
O          -0.43294641632853    1.13026424312009    0.01453225283614
H          -1.35716623685007   -0.07729366629117   -0.61484459348959
H           1.15334332866647   -0.67989939555841   -0.77177005522311
O          -1.66110733146593   -0.91271112557641   -1.03971445252390
H          -1.56381417576440   -0.70179033863847   -1.98089346345618
O          -0.63292058071390    0.75402018398428   -3.01188422440028
H           0.24894902734481    0.65245597699638   -2.63232227767458
H          -0.82035060515541    1.69180130504323   -2.92960408147454
O           0.42649427116054   -2.08754771379982   -0.07872386172257
H          -0.45727196165386   -1.75789170854112   -0.43770224519373
H           0.64177335426088   -2.87963461640033   -0.57336685410405
O          -1.57156525369270    0.53527282784441    2.29883466269789
H          -2.33596115909447    0.01728507147999    2.03668106220558
H          -1.26589287065040    0.98627663137313    1.48046967226132
N           0.89137218294750   -0.46603404503334    2.12295138509481
H          -0.07822744909094   -0.15360203767288    2.38755017449466
H           0.81259561725335   -1.25288793756311    1.46417859835678
H           1.34770235678583    0.39153591683238    1.57781553600477
H           1.44291166578495   -0.71401343456163    2.93722351052540
