    23
        -45.36147893  Gyration_radius:  2.37884345004 Dipole_moment: 6.267
 S          -1.18783485971196    1.21949876024678    0.28910121023313
O           0.24280556841568    1.39831908550148    0.37748090205230
O          -1.86701943939259    1.07460979331633    1.53127096472763
O          -1.81878978824992    2.35016119986314   -0.52434609014763
O          -1.46259613009915   -0.01334317418604   -0.62268728209443
H          -0.70752983393365   -0.68689705385794   -0.62455607760516
H          -1.44009998316955    2.27235054799383   -1.46143947426713
O           0.38694726069642   -1.77957806898520   -0.71645803766397
H          -0.03185276189571   -2.60158330413338   -0.97887998642224
O           1.33769912684595    0.61677071273822   -1.92550580164458
H           1.24608966907300   -0.33367092229097   -1.78516116019036
H           1.18671968684308    1.01102222291021   -1.04689270042086
O           0.40332256766952    0.31445633173091    2.86601546234497
H          -0.55031913911376    0.46848651655226    2.86628568748969
H           0.71268230849946    0.85277092199608    2.12418366724212
O          -0.83665533231094    1.82850581433136   -2.82387236441038
H          -1.39088506145118    1.11314982785777   -3.14477444509301
H           0.04872012035743    1.42877796269419   -2.62401385738896
N           1.17289879733070   -2.15132254470757    1.72768189325942
H           2.17849347031409   -2.23075125943902    1.81522392863851
H           0.72752084338358   -1.92105024067895    0.24351600913699
H           0.75727499031609   -2.93552203385190    2.21506778540308
H           0.89240790960198   -1.29516109558910    2.22275976682540
