    23
        -45.37943462  Gyration_radius:  2.3170230161 Dipole_moment: 2.103
 S           0.15328931207173   -1.80657603762693    0.21588682509982
O           1.55908845643851   -1.46052500288039    0.15723432049475
O          -0.49904647350602   -1.26059988367651    1.39837815606962
O          -0.56174299707950   -1.48373944349702   -1.00660808982287
O           0.06803140309233   -3.38195795309691    0.36033489546485
H           0.43474812642487   -3.52992833374408    1.22605479333630
H           0.42247884378106   -0.28528804294745   -1.68938428008026
O           1.04101277265663    0.43749449139833   -1.91259742559952
H           1.90391408059675    0.07739937165570   -1.69167526183478
O          -2.57848446678005    0.17126724449308   -1.47979666969962
H          -2.29347715064787    0.61401578567592   -2.28245413849106
H          -1.96738902309031   -0.58801355584655   -1.36972989765376
O           0.62894791528664    2.27995832578909    0.00150869434559
H           1.26406300119399    1.89798878932859    0.64230958576660
H           0.78207786826209    1.76876124601036   -0.82376011218881
O           2.15846469954192    0.70896477984641    1.54064262806607
H           3.11227348191432    0.69102213085765    1.63234572692466
H           1.91226094263913   -0.12928429020264    1.08963114095844
N          -1.52958550956318    1.07291889071965    0.81484989525849
H          -2.08087472257258    1.52050868781810    1.53825755249260
H          -1.14321548701656    0.14588600817256    1.15396425740453
H          -2.10190331776848    0.86236316003963   -0.03708630586340
H          -0.68493177587455    1.67736363172012    0.52169369955062
