    23
        -45.36960836  Gyration_radius:  2.27068833909 Dipole_moment: 6.309
 S           0.02976070896026   -1.33191435452322   -0.56201817323028
O           1.10398790191478   -1.94432341370942   -1.29886270871250
O          -1.16728319331300   -2.12810299639296   -0.40396358026608
O           0.55048753700101   -1.12390714379307    0.94345899044685
O          -0.28718463328123    0.02646304684235   -1.02486012808494
H          -0.15045679776300    1.44281545984267   -0.22833297406014
H           1.44560603540191   -0.67553317055628    0.85367921295097
O          -0.23667566771596    2.23814401555097    0.35480322661554
H          -0.40177233057978    2.98528520456085   -0.22081526463696
O           2.82195204180697    0.01135637801650    0.53840454597651
H           3.49787916472861   -0.66977480863864    0.55644261099607
H           2.71971813438443    0.25790071702972   -0.41916200125965
O          -3.01242473761097   -0.37460644274010   -0.22888794867248
H          -2.43057359369364   -1.18028452201790   -0.33922902656787
H          -2.75997104314897    0.18692018247387   -0.96751497104626
O           2.28644967793993    0.26535482909636   -2.02501803829685
H           1.46946347812648    0.76794381319007   -2.09922954919879
H           1.97008918223227   -0.66268839455479   -1.95069237173772
N          -1.50346229051380    0.38899651427505    1.74382807373665
H          -1.11469222484029    1.31422249604240    1.45235295988901
H          -1.85400924964014    0.38862064303812    2.69569771072796
H          -2.25515353940184    0.11232269656931    1.01610482714776
H          -0.72173457108295   -0.29521073957921    1.61381455730151
