    23
        -45.38139740  Gyration_radius:  2.27223655664 Dipole_moment: 2.626
 S          -0.57829433082742   -1.24859477334113   -1.10690452579186
O           0.15501736745312   -1.77919572367421    0.03041090547071
O          -1.90196304245399   -0.77905204325175   -0.76767798607249
O           0.20264835057257   -0.23751760150671   -1.81940638934777
O          -0.76782973012071   -2.45390300315157   -2.11476537382861
H           0.11639081820373   -2.79315276685975   -2.20994742974447
H          -0.51708342254672    1.16039554048920   -1.28914243527494
O          -1.03536040819112    1.84492719998780   -0.80856355774875
H          -1.93816333303340    1.51608607341834   -0.86839163913480
O           1.87881646594013   -0.11773397030696    1.19488152686322
H           1.35899361810456   -0.86272674896553    0.82420969534158
H           2.35273386322624    0.25045018055169    0.42274102516504
O           2.58977854971709    0.78836514402437   -1.23912133622314
H           1.76926848515525    0.35654562754452   -1.55376389704852
H           2.55696881558812    1.68777580379091   -1.56889472117713
O          -1.76204034223014   -0.92787901994442    1.84129417541105
H          -1.08963005080128   -1.61800036545472    1.86320963561738
H          -2.02117488481270   -0.90066413340936    0.89230523570012
N          -0.27580939428512    1.25427573294156    1.67784362487134
H           0.69380764847097    0.79804002726699    1.56214999920717
H          -0.56619093398571    1.63838397729675    0.73823652687814
H          -0.93872967609209    0.45573024166092    1.90142455042439
H          -0.28215443306805    1.96744459089492    2.39787238043649
