    23
        -45.35564856  Gyration_radius:  2.41994809032 Dipole_moment: 6.235
 S          -0.25273076210737    1.51744937341796   -1.93206571616539
O           1.07468525734151    1.02468441009058   -2.18636155173225
O          -0.83428550188172    2.42152048061423   -2.84854302849615
O          -1.19255500957793    0.27571004948847   -1.77036229444862
O          -0.28702261891167    2.15140415637931   -0.51252898438856
H           0.32013023163613    1.66430829328341    0.11164760631432
H          -0.64583610317927   -0.54256093402210   -1.59218746791498
O           1.19297274094413    0.97017145485137    1.26944058201664
H           1.57884115655044    1.67289294719292    1.79516877214371
O          -2.07805254308933   -1.33163373131245    0.50377372336041
H          -1.37932880176590   -1.82538366212144    0.05526471562108
H          -2.36155623066869   -0.66376064509317   -0.12818048757368
O           0.11954118890050   -1.89853599271063   -1.20830123261189
H           0.28457965347470   -2.41213670172066   -2.00105004728386
H           1.01486517670497   -1.54966579758463   -0.91264961035662
O           2.33392297378097   -0.70725796750674   -0.60280646986322
H           2.14950291446750   -0.05219656860335   -1.30321224965272
H           2.15106199762795   -0.23082392018738    0.22097696241200
N          -0.69673898809906   -0.12696346922604    2.68845981745164
H          -0.40743220285473   -0.83179263996438    3.35499087208302
H          -1.27245697067686   -0.59062508813812    1.97877774424057
H          -1.28750711516427    0.53705235973902    3.17315044313574
H           0.47539954656602    0.52814359314755    1.84659792169210
