    23
        -45.36924276  Gyration_radius:  2.45841552367 Dipole_moment: 3.185
 S          -0.47471353360657    1.85588930668166   -0.61817435187913
O          -1.37020486414657    0.69887097098163   -0.57456679992432
O          -0.88905217676622    2.91377527344796   -1.47950720796535
O          -0.54369009268296    2.47354145465654    0.87674066172521
O           0.90895653917394    1.41265121246398   -0.75714394010423
H           1.47043560321142    1.03734939338755    0.77670633583087
H          -0.95205279228339    3.30890954698727    0.67871445272713
O           1.52116013189813    0.69838367558853    1.69819852088856
H           1.03239235976195    1.34017060023603    2.21942611850989
O           1.79675258629795   -0.60897110075665   -2.22066532701503
H           2.72356009650062   -0.39756550819080   -2.34555310531310
H           1.41551837898685    0.15546111410015   -1.73637773001160
O           1.05393548310393   -2.82384819971501   -0.96180215164298
H           1.41747748880550   -2.05371175548586   -1.46218128610852
H           0.49936566414845   -3.29903097732712   -1.58271115215535
O          -2.75420846288672   -0.53514166011379    1.45928811613326
H          -3.70830659316298   -0.45470300134452    1.47290495375803
H          -2.44264520413335    0.02214976407774    0.72547080357878
N          -0.13572356028001   -1.17752208985518    0.78072872012244
H          -0.87729238775939   -1.51016250263607    1.39743375181252
H          -0.58641029085224   -0.48143700185015    0.12203411945850
H           0.58590608905279   -0.63151130956022    1.31129225842190
H           0.30883953767752   -1.94354722578447    0.21974423921221
