    23
        -45.35055908  Gyration_radius:  2.35888448328 Dipole_moment: 7.711
 S           1.35437025063397   -0.20622153480128    1.75025074644838
O           0.25924912360126   -1.01596861637741    1.28197476665642
O           2.07359052500707   -0.66639004154787    2.87722886868623
O           2.30770483617494    0.04826181749290    0.53763139486328
O           0.82565287299453    1.22523567518344    2.03726262706944
H           0.56874276239878    1.61454320111062    1.15387369059816
H           2.04160325477944   -0.53024939171919   -0.23190369332915
O          -0.54341410239575    0.29551760354672   -2.12520434886379
H          -1.06087089194916    0.57698795798017   -2.88081803396608
O           1.64199932178929   -1.19919782525499   -1.63285715612658
H           0.82993310211408   -0.71804795989947   -1.89654469839760
H           2.30131810244223   -1.04101195929386   -2.31175884528584
O           0.44930151480840    2.08442889750417   -0.37280050042771
H           1.37314791933612    2.12427525696382   -0.63181394688459
H           0.01306044958529    1.45172162810154   -0.98573905180026
O          -2.02345796818178    0.39105692791865    1.96142473393132
H          -1.24288390360564   -0.17034516437147    1.83232831181217
H          -1.71708563623685    1.14947585349657    2.46140995963794
N          -1.98271717046075   -1.15062522510102   -0.54992091777868
H          -2.55912206188904   -1.93560862326163   -0.82525132413376
H          -2.52648640373717   -0.55475272771093    0.06749843567815
H          -1.21488491939307   -1.50297594497408    0.01811203818436
H          -1.16875097783862   -0.27010980500765   -1.53438306653346
