    23
        -45.35716466  Gyration_radius:  2.40442961879 Dipole_moment: 5.849
 S          -0.30039783593862   -0.53076011431606   -1.68419642293025
O           0.40885970099662   -1.18419543331265   -0.60762081685820
O           0.48905438957501   -0.04889873056936   -2.76272502208810
O          -1.41274529070065   -1.45222443144860   -2.19788860003364
O          -1.11247917250481    0.64777999332383   -1.06441707727302
H          -0.75849624347923    0.91568706759120   -0.15963395084361
H          -1.72106563600065   -1.97558573650005   -1.38097072862731
O          -0.38371143033783    1.41927777421890    1.27504515184347
H          -0.58786038152109    2.35587820444598    1.32027144468387
O           2.73900247514392    0.10720980856713   -1.09987011427876
H           2.45176198292713    0.37559224399103   -1.97871971578362
H           2.08803841624632   -0.56342659479460   -0.84172780330168
O          -2.65291151966968   -0.27076611365382    1.28878415239481
H          -1.85072017285596    0.20002278952913    1.55716793556535
H          -3.00815739030910    0.21583267373097    0.54056194397927
O          -1.82392441784706   -2.53082800453563    0.06284155560664
H          -0.87398108614126   -2.42086819665389    0.21386239946986
H          -2.25728565347446   -1.84326660156955    0.61336341475556
N           2.20798196016233    1.34523551636815    1.40543429902204
H           2.69281770833860    2.21657023217917    1.58149170274508
H           2.49614756558221    1.00584835239840    0.48254133616281
H           2.53237313518035    0.66723668373020    2.08366109710134
H           0.63769889659419    1.34864862721787    1.35274379866910
