    23
        -45.35539677  Gyration_radius:  2.31214504208 Dipole_moment: 5.283
 S          -2.04083437733024   -0.42353743660611   -0.45520995240942
O          -1.83595173656326    0.83713736895349   -1.11992811413928
O          -3.32305795934316   -1.01483736809031   -0.53713316640825
O          -0.95040305637482   -1.40105705124880   -0.96518629405838
O          -1.66033262633349   -0.24776246743717    1.05304544011778
H          -0.74020276927070   -0.57486265308472    1.24198536489553
H          -0.20648361472225   -0.77272094015059   -1.31112743484131
O           0.82069794195896    0.20821433616589   -1.74179640019473
H           0.22791413195063    0.82990541031078   -2.17572301083214
O           0.70542888661879   -1.22278664286180    1.60533048874422
H           1.12316222569133   -1.63251308019884    0.80729255463965
H           0.56700377349830   -1.93268874756886    2.23534613164817
O          -1.11902404538915    2.61260870252896    0.77255660147205
H          -1.60596394417214    2.26409163792940    1.52226245934394
H          -1.44708696407971    2.11436324614156    0.00146811295057
O           1.70039019447424   -2.29814188712575   -0.62929005110463
H           1.88545458745311   -1.54025212807336   -1.19653052921187
H           0.90418265894023   -2.70406883542418   -0.98664250978485
N           1.45158000154658    1.42604683878233    0.45169749099327
H           1.12660851988971    0.69743970960542   -0.88411466780651
H           0.62631929565570    2.00454701506532    0.63217345866110
H           1.52192250544322    0.74960707695624    1.20254760952640
H           2.26867634049971    2.02126789541324    0.47697640783544
