    23
        -45.36270893  Gyration_radius:  2.2728943555 Dipole_moment: 6.455
 S          -0.54319765189362    0.67213826889755    1.68651613198193
O           0.87705698622651    0.88540184742182    1.51068165585501
O          -1.22977124086695    1.65056822552907    2.44769709000273
O          -1.20312087489965    0.50605936519578    0.29898947065509
O          -0.75559823302146   -0.73233521781210    2.30213901833724
H          -0.31230521080031   -1.36085010000446    1.67062228226604
H          -0.57599080531626    0.74251523944191   -0.49972460235811
O           0.28790091635021   -2.28251788022584    0.47045769419042
H           0.14473221684731   -3.20685035299529    0.68336287111434
O           0.35871071941752    1.07852329536010   -1.58459154280981
H           0.50545714666929    1.99761276922030   -1.30003590245892
H           1.16502490330358    0.56960528325815   -1.30913164400898
O           0.35177976188613    3.16382553451313    0.18602983589852
H           0.74872076497433    2.51846293863905    0.79165757238242
H          -0.40815043866771    3.51907565210539    0.65121784050710
O           2.22408107699327   -0.38857367308257   -0.41845741647523
H           1.84755894593051   -1.26161892931353   -0.25442295428064
H           2.02001433076322    0.11433433444026    0.38989031534009
N          -1.15888555751362   -1.65777999667703   -1.65639377523167
H          -1.90699513564967   -1.12203421786290   -1.23054325656875
H          -0.60109677603910   -1.00132837346333   -2.19162615507882
H          -0.27011851380761   -2.07918499662517   -0.34426736136003
H          -1.56580732091012   -2.32504901595649   -2.30006714788287
