    23
        -45.35947900  Gyration_radius:  2.33178668675 Dipole_moment: 3.627
 S          -1.47482500004351   -1.41802926373806   -0.29787884046174
O          -1.04582987744453   -0.58228145845723    0.80302942131079
O          -1.71792114085330   -2.77604834646104    0.02852873282681
O          -2.69681121919213   -0.79189351204694   -0.97787702728109
O          -0.40319119544958   -1.30129006024652   -1.42695453988156
H           0.51301873844040   -1.13581620141860   -1.06259073915343
H          -2.36338965770501    0.10452278974285   -1.29892056473159
O           1.98103548368241   -0.84992236059502   -0.52042695420721
H           2.55987430721214   -1.58666646714309   -0.72296972798089
O          -0.15793939529847    1.86615226769723    1.47003504310995
H          -0.90366512255264    2.46884976999928    1.47898377243110
H          -0.53142614704936    0.98012090833100    1.29792750770444
O          -1.66621812720254    1.37952914282869   -1.84546211568802
H          -0.71876133880933    1.50187160473732   -1.56044601581545
H          -1.64309582821732    1.31086411461956   -2.80197332296558
O           0.82432909857446    1.70186932920326   -1.04618387064356
H           0.63919095172346    1.89875891440956   -0.10579141962427
H           1.36412978781500    0.90230385670241   -1.04253312725943
N           1.52674116667139   -0.75419157727557    2.05354975433282
H           1.63223347994027    0.19362320245217    2.39602094893314
H           1.88714759375655   -0.81109686639107    0.48813447158734
H           1.86726513510495   -1.38969701243781    2.76343038348497
H           0.52810830685424   -0.91153276454593    1.93036823992107
