    23
        -45.37176112  Gyration_radius:  2.43424735332 Dipole_moment: 5.968
 S          -0.50282660480310    1.40289743696759   -0.37146103351668
O           0.05177660210960    1.38810227326989    0.97085127505169
O           0.49892335032546    1.16862502820651   -1.38922195891304
O          -1.61630646758265    0.44622899272355   -0.48459961276842
O          -1.09608106531316    2.82788155992312   -0.63354711019279
H          -1.84041149661554    2.85174215359587   -0.00569448917386
H          -1.15279386110096   -1.02941469989189   -0.90097177236613
O          -0.90607619571027   -1.98990309702651   -0.98471463342356
H          -1.59877427999531   -2.46352666085311   -0.51954116650685
O           2.75163294787519   -0.06489345578091   -1.26965195709764
H           2.96564913058697   -0.16403735148839   -2.19932272990002
H           1.94219344993242    0.51565073055703   -1.25791509203581
O           0.89991348248893   -0.63726227424136    2.29113437490159
H           1.58058040791056   -0.24187825968298    2.83907389673780
H           0.48033907059413    0.13638793546033    1.81625325373021
O          -3.19610451129786    2.06778910365073    0.81677497835019
H          -2.72475557347924    1.28593592336154    0.45818650858656
H          -4.02700721234395    2.12402156914435    0.33964702859202
N           1.51439200677172   -1.95333964641316    0.09738664853029
H           2.09400493994364   -1.27547430041002   -0.47687039463332
H           1.97420230977843   -2.85131826728435    0.19665680039738
H           1.33667154098635   -1.49470182469606    1.04050557164554
H           0.57085800893021   -2.04951287909212   -0.37295838598230
