    23
        -45.37504049  Gyration_radius:  2.33518028665 Dipole_moment: 1.148
 S          -1.39953774415720   -0.99326603522467    0.98018133439949
O          -0.88591924860423    0.29661758695926    1.45834716742364
O          -2.62522346233692   -0.87443510600461    0.25286077288822
O          -0.34860345923482   -1.69579618005780    0.23759708864405
O          -1.67584956605462   -1.85510398799233    2.27858157208476
H          -0.86407916333951   -1.81499142254454    2.77644075541274
H          -0.85117006943671   -1.37742739445539   -1.38979376157230
O          -1.31861691926925   -0.90123401713401   -2.10536610321411
H          -2.24750624433354   -1.02764756774344   -1.87820815378065
O           2.10060547567457   -0.88548464694324   -0.33377120110957
H           2.50673712945570   -1.61872580636454   -0.79742972541127
H           1.19521179514375   -1.18753081442905   -0.09856041858306
O           1.78720310226271    1.79185493507817   -0.86400820388776
H           2.07602271853697    0.87460154609210   -1.00940398029886
H           1.86517911452043    1.88581677306358    0.11115227855732
O           1.69923001304147    1.12214103418830    1.72277005809863
H           0.75422385895296    0.89268864604823    1.77192863058613
H           2.14342521930556    0.31982485694501    1.42563207402702
N          -0.79838140628407    1.43229007448677   -0.92175349259518
H          -1.39334332593509    2.22496458492200   -1.13780441574568
H           0.24748033932515    1.67866810973221   -1.00818846749958
H          -0.94640656049059    1.10815399324104    0.06942499962089
H          -1.02068158670535    0.60402082812506   -1.54062880805168
