    23
        -45.37430977  Gyration_radius:  2.36032603404 Dipole_moment: 4.521
 S           0.50581895560632    1.15084148475465    1.63484306582584
O          -0.10855900938009    1.96765982353526    0.59125773466026
O          -0.44694277247922    0.41005844913079    2.41379117060256
O           1.57577085164946    0.31779172702236    1.07578447345187
O           1.22718820559783    2.16333982352517    2.62133119002199
H           1.88441796326371    2.58631117195578    2.07681725388930
H           1.02869343376389   -1.36117895447716    1.26625189902127
O           0.25568138932920   -1.91738987412513    1.48294218589482
H          -0.22043326640659   -1.31935480256179    2.09319131668792
O           1.44739135484144    1.06931243339335   -1.42714429969638
H           1.70492854842071    0.69732647942143   -0.55620155389163
H           0.77338659298435    1.71256737025068   -1.17026802188684
O           0.50738429082447   -1.06176205359497   -2.62906306196854
H           0.85831750675556   -0.20221986993554   -2.26738546176287
H           1.27947345096143   -1.60398036330975   -2.79742018922052
O          -2.26230616135968    0.79216040572785   -0.27256273883699
H          -2.52610934814251    1.36075896288767   -0.99877332998556
H          -1.51076731799002    1.25663572515102    0.17398672318949
N          -1.20799432099535   -1.62218567977544   -0.67141724919011
H          -0.62746853634864   -1.82641446333797    0.21026337274839
H          -1.87608790618921   -2.36555283099834   -0.84295477677356
H          -1.70667872249518   -0.70564465152411   -0.51730544646319
H          -0.55510519236292   -1.49908030357726   -1.48996425759987
