    23
        -45.37106540  Gyration_radius:  2.28605863161 Dipole_moment: 5.728
 S          -1.75189991042701    0.06445955366775   -1.06758288170092
O          -0.97534586538512    1.27946442195587   -0.87827566515321
O          -3.12054863382717    0.24650791853564   -1.42528321530120
O          -1.07290847796667   -0.64361849895461   -2.38400944706346
O          -1.50038925503748   -0.89813215935174    0.00194789601593
H          -1.67010033847273    0.22015992064556    1.32248936339631
H          -1.84350624233614   -0.71640712075275   -2.93820052065282
O          -1.48346758826209    1.06091736286104    1.78266801454348
H          -1.48028759440569    1.70305192678048    1.06163628106286
O           1.06484326925553    0.59954134324750    2.23084707265287
H           1.31689197845274    0.85932522189681    3.11759636322470
H           0.09327594787391    0.80606218735338    2.14379235594594
O           1.58247149259158    1.51230872029315   -0.31738427477063
H           0.63722055048077    1.63682530269228   -0.56191083437284
H           1.56964124262919    1.33040059147269    0.63973449987487
O           0.73849690881125   -1.86332938855275    1.03920539713564
H          -0.19566331740960   -1.70607863862689    0.78780356220262
H           0.96473027571438   -1.11401143433751    1.62064394144929
N           1.44600461276751   -0.89361593501326   -1.26395744391840
H           1.65741793125259    0.12425498554676   -0.95958397596835
H           2.19299085266107   -1.29971566278964   -1.81678137279576
H           1.26783677189789   -1.43196741143420   -0.34537925100114
H           0.56229538914182   -0.87640320714305   -1.79001586480181
