    23
        -45.35021357  Gyration_radius:  2.35100533402 Dipole_moment: 8.476
 S           0.55664954884319   -2.21918014461862   -0.24030301749188
O           0.99140946372876   -0.96690313691653   -0.80338333385628
O           1.37061235532499   -3.35493581493809   -0.45646800934726
O           0.30079620137748   -1.98750952836901    1.28553949782957
O          -0.88582186298327   -2.51002781440207   -0.72977262176364
H          -1.39956827772684   -1.70487379839876   -0.46909839534344
H           0.81725248679055   -1.19961571241681    1.61449135205034
O          -0.48063342585126    1.67032702421043    0.99706921391570
H          -0.90076084694919    2.51532629051033    1.16477266133901
O          -2.06324254188718   -0.36383946383457    0.20239868367384
H          -2.43370494693761   -0.68814194521372    1.02580324427416
H          -1.45137165046917    0.37048240749203    0.44302265192182
O          -0.84890100357768    0.28612410417784   -2.46876205439130
H          -1.66938473320203    0.09961081984159   -2.00714805805722
H          -0.16727979115252   -0.23585112231684   -2.01671346258111
O           1.35284602008460    0.16252103058880    2.27509247660139
H           0.72664322906526    0.79324882282711    1.86220368135433
H           1.17456668667997    0.15885612341972    3.21796107451550
N           1.08043829298827    1.91067437891461   -1.04379930118148
H           1.80612895730073    2.59690294473397   -1.20458725805212
H           1.51162626378397    0.99277090370984   -0.96484279938797
H           0.13042360492482    1.81021524890208    0.18027927328304
H           0.48127596983870    1.86381840210125   -1.86375547930156
