    23
        -45.37882881  Gyration_radius:  2.32784974639 Dipole_moment: 3.290
 S          -0.90909079253520    0.20880692075444   -1.65915093813035
O          -0.93694607381511    1.52067087786037   -1.03490907852863
O           0.40037724180633   -0.09821868522517   -2.22326299195226
O          -1.40451209777564   -0.85054654754742   -0.79750027636735
O          -1.92357873648239    0.26687185737352   -2.87772903861811
H          -1.62685928541854    1.00754162874403   -3.39793577021331
H           0.84294921267292    1.96022601595853   -0.48335416516903
O           1.68585339592492    1.49224882196522   -0.59158741724488
H           1.47868421502581    0.91089595984985   -1.35398375258701
O           0.82890460084804   -2.19026468624664   -0.58327917938148
H          -0.12157065710313   -1.94961701112275   -0.55108149405415
H           1.10283158502690   -1.76367188581642   -1.40881975886716
O          -2.13105535612276    0.69877009774000    1.21526173160545
H          -1.82887223832986    1.40919128742373    0.62912287041418
H          -2.10371608567211   -0.06964418092822    0.61573156320339
O          -0.25552392948879    0.01381591407306    2.90578268395777
H          -0.64864571739951   -0.70071933878360    3.40924089855405
H          -0.98573883678298    0.36053121967950    2.32050045033643
N           1.72503043659029   -0.45154627482269    1.19246594003152
H           0.97899552294250   -0.28468842065058    1.92124644212967
H           2.61840837786547   -0.64719353545485    1.63084870928157
H           1.42241811181060   -1.25166825744710    0.55650056599212
H           1.79165715642021    0.40820819259843    0.56589201561763
