    23
        -45.36347726  Gyration_radius:  2.42011096626 Dipole_moment: 5.228
 S           1.20080517564957   -0.93926051707336   -1.89484012549225
O           2.41946769051165   -0.28152195177485   -1.50925501682267
O           1.21851981920771   -1.75920004816992   -3.06159853172439
O           0.88228866663081   -1.99920468916104   -0.66009789964775
O           0.05553138743994   -0.01681090718545   -1.78798205179342
H          -1.25917741462408   -0.72055331849159   -1.10339784110499
H           1.45551168510426   -2.71863843833878   -0.90665068490339
O          -1.63568381429842    0.03123551968880    1.75803215145578
H          -2.35570007053666   -0.22201470611011    2.33679730497904
O          -1.91432090222384   -1.19391488556644   -0.53719161592245
H          -1.79326803511582   -0.43042249241889    0.88776552843699
H          -1.59860898426213   -2.10004767441274   -0.51113602482683
O           1.07205267969980   -0.52372619991275    1.68854794173503
H           1.08684100429650   -1.17180431520310    0.96621171641913
H           0.13593172892863   -0.40401913406359    1.92539925091377
O          -1.20564436163163    2.58261339010870    0.88120758805720
H          -1.81620196427850    2.66155055612135    0.14547978708646
H          -1.40949368561820    1.72815678043624    1.31268453343404
N           1.10758789477315    1.53098022682712    0.01790553242849
H           0.71087693090077    0.97569093874465   -0.79917900860463
H           1.97412894904327    1.97035286309467   -0.27474138736078
H           0.37571384389463    2.19251318441246    0.35789815739904
H           1.29284177651780    0.80804581845229    0.76814069586562
