    23
        -45.37814019  Gyration_radius:  2.27150939254 Dipole_moment: 5.401
 S           1.33217160859599    0.18884636784326    0.78469572128946
O           1.28652537193179   -0.24113390953881   -0.60852181227967
O           1.08251524282913    1.61485556084971    0.91457267860391
O           0.38612188624380   -0.60293398545405    1.57787564129709
O           2.76505171051456   -0.08000586064067    1.33315168433476
H           2.84465442939953   -1.05200584056942    1.25344841177854
H          -1.15578269313609   -0.24547668284806    1.34761137486719
O          -2.08858696851712    0.00726926093356    1.11015988238837
H          -2.59082742715476   -0.05240852141245    1.92426146889584
O          -0.32549734190430    0.82748733237710   -2.54597356828177
H           0.52929296938718    0.59781474494342   -2.14126025207591
H          -0.82714882511968   -0.00716294802687   -2.47590972816398
O           2.05022902660863   -2.57738051113886    0.84908564594545
H           1.25671262960383   -2.18056760614903    1.24532441172911
H           1.92201197339601   -2.52643517571103   -0.10289006316233
O          -1.10534170785026   -1.39866285669834   -1.22597196827760
H          -0.21182516067990   -1.15674565746802   -0.92298067534410
H          -1.69268864464635   -1.20395570172802   -0.48814689932926
N          -1.11957993565642    2.04689217462791   -0.37146472504940
H          -0.89549033436150    1.65296788410783   -1.34552569526625
H          -1.50770030026676    2.98288837445947   -0.41157118623514
H          -1.74125562592588    1.38441862071432    0.13515972517669
H          -0.19356187333121    2.02143491651394    0.16486994717447
