    23
        -45.36025167  Gyration_radius:  2.38152454338 Dipole_moment: 1.696
 S           1.01203637581474    0.38690384793385   -0.16500535268599
O          -0.19671856604922    0.00664087376531   -0.86841347687251
O           1.89622085253957    1.22045427649210   -0.90942689214741
O           0.58823312151132    1.10343061951182    1.15085992034615
O           1.71386410486238   -0.86177496661555    0.34033262149040
H           1.13851770627554   -1.22277860912696    1.16095290859354
H           0.59199665187223    2.10078062977649    0.93981788414201
O           0.22486168268826   -1.50246973769993    2.21733557726688
H           0.06900660177088   -0.62356289365148    2.57648098096175
O          -0.74793289096185    2.47215956362319   -1.78666184320367
H          -0.25424155209455    2.53555856531647   -2.60744164491685
H          -0.69632149623346    1.53659258840117   -1.51928683606456
O           0.05902954099257   -2.70336403846226   -1.36103024760544
H           0.95137279632669   -2.85278513018077   -1.04172358565781
H          -0.06063097811492   -1.74144286175934   -1.36244046646171
O           0.70154874908087    3.45892879201438    0.22639469045722
H           0.04377953561908    3.31216268702726   -0.49228673604018
H           1.56116434822412    3.33132943823535   -0.19138252485319
N          -1.83685064399414   -2.01861375906627    0.71759819720020
H          -2.74343407346795   -2.37427533176727    0.99219530202146
H          -0.62370582334971   -1.76829910483046    1.71282759479012
H          -1.42804588802269   -2.65855613064091    0.03824476715995
H          -1.96375013527689   -1.13701931828698    0.23205916208141
