    23
        -45.36701464  Gyration_radius:  2.44896641264 Dipole_moment: 4.907
 S           0.58893985027461   -0.41313555504034   -2.16492144489782
O           1.63765612452636   -0.03083556006004   -1.22466161099750
O           0.98008297590035   -0.50730129579706   -3.53287763512715
O           0.21863608148797   -1.94982524229048   -1.74601930939782
O          -0.64081133054897    0.33127708115553   -1.90363240939232
H          -0.26456958463379    1.69215148478533   -0.81970544571213
H           0.39517350372345   -2.35372227815956   -2.58890849782570
O           0.33756452229705    1.96800045813705   -0.10095347580792
H           1.16340490497976    1.52764819159184   -0.37134623165624
O           1.54176752317884   -1.64469442517908    0.82636042725679
H           1.25162686796461   -2.46346471624853    0.41828539375572
H           1.72615279818367   -1.04055813533855    0.06590325769267
O          -2.12069043665259   -1.07145405954227   -0.26836286395368
H          -1.69297420723951   -0.50326664434934   -0.95444287183735
H          -1.89477590414166   -1.96858482604133   -0.52408636753766
O          -0.42875347537897    2.51465470482288    2.63941043859103
H          -0.45746729835764    3.36195309454821    3.08490681515200
H          -0.13259623911948    2.68855039621867    1.73599370077681
N          -0.45296576181972   -0.03852759858054    1.51928752085101
H          -0.68374518924316    0.28606318267530    2.45523659784779
H           0.34740330511885   -0.72028785670137    1.49090804280576
H          -1.26601533683688   -0.46688918661131    1.00769871890759
H          -0.15304371391676    0.80224877604271    0.95592725047828
