    23
        -45.38060375  Gyration_radius:  2.2572435977 Dipole_moment: 4.470
 S           0.45672006721541    0.63442070265319   -1.73104694954736
O          -0.88984498402043    0.79584485290121   -2.22390528028662
O           0.81945372047785    1.56142574777527   -0.67390059150933
O           0.75682934327780   -0.74646803366410   -1.34013706179514
O           1.40348473040055    0.94556294636579   -2.96627361696812
H           0.76808062887137    1.25137438607319   -3.60416331400751
H          -0.29073737317700   -1.58205071140795   -0.45855401068325
O          -0.88045372113827   -2.05537898195047    0.18590061234507
H          -0.93363077109158   -2.96135647515669   -0.12158450659027
O           2.43752647546754   -0.15094227180522    0.58214101832916
H           2.02199108015960   -0.58859061821125   -0.18994573077325
H           2.29267922467604    0.78393268634852    0.37198297568621
O          -2.50879684283978    0.24828790731366   -0.16609308028271
H          -2.24599967306749   -0.66879088301216   -0.01468171013349
H          -2.06927487841226    0.50666116836114   -1.00051111852502
O          -0.86262166112545    1.61323444539701    1.38140051530190
H          -1.65406897564467    1.24451548195130    0.91811167757453
H          -0.24339562822595    1.82140215411517    0.65012093832210
N           0.32712300821519   -0.55127683329754    2.11622817597309
H          -0.20466267342617    0.38994612945749    1.93653509677167
H          -0.18776048530554   -1.28852722382649    1.60354496637151
H           1.27441913757253   -0.43820182294251    1.64192096981676
H           0.41294026114251   -0.76502475345112    3.10291003461252
