    23
        -45.37196991  Gyration_radius:  2.40128691015 Dipole_moment: 2.398
 S           0.86623126898374   -1.11105459097709    1.54137318057382
O          -0.25919057771052   -1.37109190116383    0.63643240412682
O           0.87798199652751   -1.90946196225959    2.72288756465250
O           2.17082160231700   -1.52179689733541    0.70472195299094
O           1.00501157563815    0.32890082754903    1.74799343274022
H           1.46670813085722    0.79333983872425    0.25243009723545
H           2.43297461797414   -2.32571367182261    1.13963546037307
O           1.54451486730780    1.10889748512731   -0.67934242537785
H           2.38260910245045    1.56884534582088   -0.73810433211224
O          -1.92699698748280   -0.14462440230709   -2.67615488314258
H          -2.54374160514792   -0.86032542416756   -2.83365895508530
H          -1.03614948338393   -0.56526714105499   -2.59674841122997
O          -1.20167231784806    1.80972944283421    2.16987590503050
H          -0.34527855822174    1.33731135297848    2.12333358610939
H          -1.51913018700253    1.69409422371226    3.06590757391720
O           0.44241722459904   -1.17519450523886   -1.97786046245965
H           1.06237495880448   -0.44856326060696   -1.82871754753508
H           0.22977282388851   -1.49399648546706   -1.08275664660773
N          -1.16073003108664    0.88322475977204   -0.34569253147710
H          -0.27245926742601    1.31623411125540   -0.63899231305548
H          -0.88458220192349   -0.04936135610623    0.08703750599915
H          -1.59238611533890    1.44819762085821    0.39627064327297
H          -1.73910083673682    0.68767660989941   -1.18987079902407
