    23
        -45.35094061  Gyration_radius:  2.37618416729 Dipole_moment: 8.136
 S          -0.42282298252140   -0.44572910243422   -2.25070323482386
O          -0.53410809930831   -1.16934964706237   -1.01079958157674
O          -1.33341927588131   -0.77515408718783   -3.28132063410446
O          -0.50384314877480    1.08488755355049   -1.90158677019876
O           1.02618280256918   -0.55567313940640   -2.77776892901034
H           1.59265840808055   -0.14369105544408   -2.07419803822934
H          -0.88439866976641    1.21477212320766   -0.99448174370895
O           1.09382654730290    0.82642093094056    1.52712391090456
H           1.55848389570511    1.07438106057370    2.32750482171450
O           2.23741775066022    0.81985576544728   -0.92871527570638
H           2.01408947779791    1.68841887170829   -1.27168462022451
H           1.85356848284043    0.77042409475714   -0.02736374694062
O          -2.36619373980478   -0.99113291780280    1.10286802916574
H          -1.90423247127996   -1.24214778148019    0.29021627348407
H          -2.37684795170105   -0.02965557152087    1.08588912561840
O          -1.25367577321381    1.63835241290070    0.54587454620501
H          -0.41854251473906    1.36039090700545    0.98852328768920
H          -1.31465399902516    2.59250581677205    0.62320779287912
N           0.40376669831480   -1.65061692420082    1.66014356531619
H           0.85649158340565   -0.17340623231484    1.62403285200758
H           0.32852898519075   -1.81833981821864    0.65901431267703
H           0.90289921969568   -2.42286072272080    2.08214850459394
H          -0.55517521558108   -1.65265255704276    2.00207554234699
