    23
        -45.38139728  Gyration_radius:  2.27253984192 Dipole_moment: 2.626
 S           0.15193933426884    0.17933670946554    1.74786560362048
O          -0.21233918242290    1.44858944850924    1.11842628232640
O          -0.96656192599755   -0.73165435621280    1.83011785886281
O           1.32677601246602   -0.40406296255561    1.12182381750772
O           0.56657815672265    0.52522611431529    3.23541660507041
H           1.36724797427018    1.02746887864770    3.12237404573729
H          -1.50673369480510    0.98982271075734    0.18633179771961
O          -2.19003423485094    0.49626242514990   -0.32119238592950
H          -2.58621560214910   -0.07423512194360    0.34547482535816
O          -0.04185381637209   -2.68854607539942    0.35848120278241
H           0.88922639952917   -2.49286524595020    0.51255472383142
H          -0.50077847563569   -2.10660282602378    1.00579809746052
O           0.87828410925936    2.67721470153442   -0.97575096049574
H           0.15902780319777    3.16579353294566   -1.37900043045288
H           0.52347584222132    2.31966250531762   -0.13603367528736
O           1.67888119911299    0.15124292412301   -1.45817966600717
H           1.73401238599664   -0.06669301675257   -0.50318371831082
H           1.53672846209566    1.11847244197875   -1.47406234920443
N          -0.57802215364575   -1.11680577928703   -1.70089546235497
H          -0.41603452103020   -1.88725556535110   -0.98881883562495
H           0.35464027740529   -0.58035582143638   -1.76031331671271
H          -0.86857804653168   -1.48394446248555   -2.59973567661077
H          -1.29966631308956   -0.46607117934074   -1.28749838328722
