    23
        -45.36801647  Gyration_radius:  2.57926011718 Dipole_moment: 3.303
 S          -2.38959833191732   -0.48863334247873    0.43914029806060
O          -1.22536746829643   -0.18966906515909    1.29586689565600
O          -2.71475779221005    0.62568096771325   -0.40515306785575
O          -2.19039046599611   -1.74408879805541   -0.26890808180198
O          -3.60687547316362   -0.72609398514441    1.42965135880945
H          -3.41137438244528   -1.55952826255989    1.85052950304297
H          -1.06691090810490   -1.35490525242327   -1.32188671732284
O          -0.33488384762952   -1.01175089758961   -1.90443098442614
H          -0.66246518176456   -1.09361615450794   -2.80172088429760
O           0.97259385390997   -1.59996648011237    0.63596250913538
H           0.17354060688613   -1.19834376858956    1.02804463415882
H           0.75006277507671   -1.75815529864453   -0.28758292796500
O           2.27608247921604    2.34105863829148   -0.07047878380967
H           2.37102266180494    2.94492337460836    0.66795246081163
H           2.67194771768868    1.48495072814718    0.23081483667401
O           3.08625146107697    0.00147428543459    0.82913821054863
H           2.30153599372006   -0.59924343252750    0.84143220347295
H           3.80117459037731   -0.50685900188364    0.44428232613934
N          -0.13990658050486    1.31726135812886   -0.53485050766863
H          -0.06383367883023    0.53311767493448   -1.22146289400272
H           0.78045786188081    1.81531397707470   -0.40189782423677
H          -0.90459606065965    1.92335368378554   -0.82807508437094
H          -0.47370983037935    0.84371904367394    0.35363252300734
