    23
        -45.37186647  Gyration_radius:  2.51169532266 Dipole_moment: 3.405
 S           0.67757335776723   -1.11785371885520   -0.62624267550699
O           1.60296870511447   -0.86090128932280    0.47743390585585
O          -0.70133890403906   -0.89291002495069   -0.19984902796650
O           1.01086237206390   -0.32972000840023   -1.80227394314420
O           0.78495618063384   -2.63155807142936   -1.00217721967457
H           1.60204271820330   -2.69688548603990   -1.53885143317664
H           0.04639456535908    1.78990537823363   -1.34218180430457
O          -0.50413156605902    1.69598606693232   -0.55977792161122
H          -0.65926579187670    0.72272265426780   -0.50883221575028
O           2.76672969959328   -2.06569547987960   -2.66764147318888
H           2.59287968559347   -2.26135754435199   -3.59116874629373
H           2.28160167771815   -1.23696403387988   -2.46537238605146
O          -1.71603580384490   -0.17035979211519    2.19584387992930
H          -1.49498603436297   -0.70092299179924    1.40662838269662
H          -2.32531029102016    0.52106417629138    1.86675302773528
O          -2.94081044718892    1.80997931371304    0.77857747813066
H          -3.60326861253426    1.45201103919687    0.18490887834054
H          -2.15464874463942    1.98200875346098    0.23681997064897
N           0.56605865852037    1.03004211149714    1.86415955099278
H           1.10254647561714    1.47859106939842    2.59765809714246
H           0.30264793331878    1.67694775009491    1.10363795394927
H           1.10926262582136    0.22969391952393    1.38004580132811
H          -0.34672845974609    0.57617620836812    2.21190192991584
