    23
        -45.37437383  Gyration_radius:  2.3879891872 Dipole_moment: 4.575
 S           1.41481684108766   -0.65718739136945   -1.37665723497881
O           2.21863117473929   -0.42286737167726   -0.17738551830355
O           0.55128049945822   -1.79943046081482   -1.29960656473134
O           0.69908725478808    0.56885815163341   -1.74607870776421
O           2.45991057418260   -0.92125639390717   -2.53638458394191
H           3.08963065890154   -0.22777835706721   -2.37230097074257
H          -0.96115932948752    0.39283016754099   -1.58976679233446
O          -1.92140911562874    0.41113302884024   -1.37364253990037
H          -2.37272335941786    0.13159518106191   -2.17149853850581
O          -1.61911025829085   -1.76094361288562    0.26833009101434
H          -0.82195333731597   -2.01324324755993   -0.23441651240243
H          -1.94872173069606   -0.97995156135865   -0.21218176100583
O          -0.96121490666263   -0.92124683948225    2.63772580288560
H          -1.78748282305433   -0.64473876422539    3.03640571559044
H          -1.20853359206638   -1.35455409816212    1.77056861444821
O          -0.25279997691773    2.39048646034495   -0.05264927809670
H           0.22333756770398    1.90997045919671   -0.76294122830305
H          -1.17936949593684    2.18339602225662   -0.21812656548032
N           0.87711230155982    0.75136100736532    1.70625947789155
H           0.38315220466044    1.50313426214916    1.15372657219933
H           1.48405526569740    1.15253940959815    2.41293901475215
H           0.17236014256719    0.09888326962060    2.14542458056411
H           1.46110344012172    0.20901067889233    0.99225691714122
