    23
        -45.35516799  Gyration_radius:  2.37900493597 Dipole_moment: 8.624
 S          -0.80482854319232    1.73255710660789    1.66088792943000
O          -0.75250066770872    0.60499626946992    2.54560029175052
O          -0.63077767934748    3.02804026780227    2.20182619526629
O           0.30804379878793    1.49224786215388    0.54617785701762
O          -2.07754607618915    1.69770422152905    0.80185644868240
H          -2.16616979066253    0.76718802647461    0.38083150450333
H           0.88444815629729    0.70345357277619    0.76061897056740
O           1.89026041874122   -0.55181180989741    0.73152484840857
H           2.78851151298198   -0.26457044299997    0.90234112653672
O          -0.53501998841220   -1.79831036576640    1.42372736652976
H           0.41252765477933   -1.73311336576934    1.25869036426028
H          -0.71565793482744   -1.07379701549984    2.05268140179447
O          -2.04587984237086   -0.55380992390923   -0.35570878770778
H          -1.53933526178448   -1.15482421711584    0.24539128162234
H          -1.46170990922812   -0.31947590378424   -1.09503740305311
O          -0.37555119550588    0.89416196900764   -2.03559061558421
H          -0.94666338890433    1.54678737846228   -2.44538962124976
H          -0.07987561300200    1.27832265588394   -1.19017001613539
N           1.58107980033378   -1.30422895868629   -1.78578496102923
H           0.95760394808855   -0.58775387804480   -2.14766066606017
H           2.37801481457763   -1.36755423691009   -2.40636398895175
H           1.84354565550166   -0.84842438788537   -0.22982777344753
H           1.08748014105218   -2.18778483390249   -1.82062171314839
