    23
        -45.37126188  Gyration_radius:  2.37052941957 Dipole_moment: 7.032
 S          -0.06837482095169   -1.73071007879479    0.31756823604304
O          -1.33186908862081   -0.99180356984821    0.17109875763604
O           0.07115954820222   -2.37619590739569    1.58550166311708
O          -0.06123965383435   -2.81631682111206   -0.80716009067859
O           1.05874152553693   -0.82150057580535    0.00765737292008
H           1.04314466705030    0.26877988429055   -1.05746049157292
H          -0.19251408510519   -2.30409880434113   -1.63124842852629
O           0.95448201615052    0.99180620494186   -1.75628835629881
H           1.83176625452335    1.36480022618963   -1.85636695158510
O          -0.12217144523825   -1.25278972448076   -2.99212307124125
H           0.55026174998888   -1.61479572171736   -3.57324579654188
H           0.19955217038685   -0.38396718193477   -2.69379765473973
O          -0.43339902805598    2.08298783385352    2.37484500332567
H          -1.09660651416682    1.96113793497032    3.05627951231359
H           0.21247390992433    1.33633551157092    2.49656610255509
O           1.10023355237481   -0.04802525302224    2.53730072512230
H           0.67466671620877   -0.88826094453233    2.75989721130388
H           1.35578036867558   -0.20015819822795    1.60938818359707
N          -1.16154627607866    1.52167876733464   -0.12058868606747
H          -0.38768741234083    1.63769435943766   -0.79561863242701
H          -2.01474168383814    1.95308386691907   -0.45690896970790
H          -1.29062768912013    0.43446783537181   -0.01081675527364
H          -0.89148479166880    1.87585037632615    0.83552110673002
