    23
        -45.35878232  Gyration_radius:  2.33724965215 Dipole_moment: 5.865
 S           1.88633613232869    0.37767724236792   -1.10885435088436
O           1.48424290625513    0.61067235989573    0.25738913038305
O           2.95474273273118    1.14717647608522   -1.61867340810613
O           2.18832697525501   -1.13414419929863   -1.27087817612867
O           0.64254716370333    0.60703718711722   -2.01709431536999
H          -0.15952846165025    0.12678634932583   -1.65180370687854
H           1.54064088872314   -1.64149606571258   -0.71085797446913
O          -2.09916677967444    0.84908840425885    0.80481495777627
H          -1.60958351013085    1.66596165755935    0.58673314513492
O          -1.41581885232397   -0.64868968957594   -1.09525699410962
H          -2.12953994104311   -0.66665976088010   -1.73511899658819
H          -1.74448378881197   -0.04043704355284   -0.31415732450365
O           0.29462087927447   -2.43005923765265   -0.03037534566322
H           0.18137014273090   -3.27839376095481   -0.46489349277106
H          -0.44354683349901   -1.85706650438361   -0.32060968062647
O          -0.24148024795675    2.66783810227782    0.01667671263033
H          -0.07833656940760    2.96225647378217   -0.88099227118609
H           0.46058646466631    2.02456358122561    0.22198957309782
N          -0.28507569869391   -0.34611625480608    2.36943543136592
H          -0.08166031432563   -0.05005958838039    3.31567169783006
H           0.47047360761470   -0.01314779557076    1.77379414226255
H          -0.25108135294283   -1.35794518076178    2.34630172531304
H          -1.56458555285987    0.42515725774586    1.52675953154049
