    23
        -45.37482856  Gyration_radius:  2.38117227062 Dipole_moment: 1.029
 S           1.68903494502909    0.13121127000709   -0.36928151745704
O           1.22894331014259    0.80264519213764   -1.56540592693808
O           1.42071114227556    0.90944836043454    0.83848176360343
O           1.18837576819939   -1.22683882873509   -0.24692240546049
O           3.26478245805681    0.01567523562272   -0.49943715038755
H           3.50108874794625    0.86895521997001   -0.84954323186279
H           0.04098974933636   -1.68081665895509   -1.38549474555646
O          -0.73694406697632   -1.91505445841603   -1.93962328705781
H          -0.38537106657640   -2.17229547003373   -2.79284483767258
O          -1.03765763431381   -2.24983563132181    0.96700741057955
H          -0.09847855588390   -2.10474166545149    0.75770593730274
H          -1.42349327913152   -2.55770901379679    0.13966190336778
O          -1.43227200326674    0.70621591217256   -1.66019823660470
H          -0.48560014364319    0.93725741420709   -1.76471233205872
H          -1.46733672549725   -0.23278506713660   -1.92026584763552
O          -0.19322411305931    2.47563991214650    2.54968225602691
H           0.53681485017053    2.08979341177924    2.04441709539281
H           0.19514785067771    3.13597259589121    3.12460338161681
N          -1.19291612076453    0.41599820729258    0.93254641559997
H          -0.15664572191707    0.58488354286606    0.96806175701481
H          -1.62518641979139    1.03586999039168    1.61533573067585
H          -1.48238033343220    0.63251592570237   -0.07068423980182
H          -1.34838264757286   -0.60200540675883    1.12691007729270
