    23
        -45.38002661  Gyration_radius:  2.2965707097 Dipole_moment: 2.944
 S           1.08935069352394   -0.94875287653146   -1.28064852409598
O           0.25602097002515   -1.90370482701077   -0.57865901086462
O           0.42557788005955   -0.37494168037400   -2.43727442995087
O           1.64170177792628    0.06702565846045   -0.39463037168377
O           2.33939362556506   -1.76079095403131   -1.82027127608629
H           1.90366177110061   -2.48378030899404   -2.25804255422617
H          -0.87079022462179    0.43406516825537   -2.02807800120912
O          -1.66032013759128    0.94482229364875   -1.69844438913777
H          -2.14398680264508    1.21184268560792   -2.48169274958502
O           0.04257783471298    2.15741994399353    0.07244495048262
H          -0.64301131730261    1.98604358138478   -0.59643537124705
H           0.76894002702971    1.54420959864590   -0.16560905908985
O           1.66812861980524   -0.56720708741530    2.14274083357758
H           2.47053870017097   -0.15687002753534    2.47011426854714
H           1.70253159849716   -0.47287203522406    1.16032998194144
O          -1.99935732597067   -0.90403248830043    0.31365647704194
H          -1.22231576746693   -1.43208256565955    0.01382327911781
H          -2.14592010909218   -0.26826238244970   -0.40746001240659
N          -0.73823436010955    0.59575516277489    2.03310751978036
H          -0.46722306734454    1.37941871493698    1.36241191144280
H          -1.34315367882049   -0.07358716939412    1.44682018135359
H           0.14962920498824    0.09502471562882    2.27536532615345
H          -1.22373993247989    0.93125689960873    2.85643101015702
