    23
        -45.35387513  Gyration_radius:  2.34536784099 Dipole_moment: 5.300
 S           0.93794853143151    1.74351732170148    0.68767432831549
O           1.87930299511864    1.00095238075323   -0.11019942540075
O          -0.00247545182546    2.56817529474760    0.02511147959743
O           0.22468731763099    0.78020208590702    1.64005054484120
O           1.79497732629038    2.64629770003711    1.65647647666032
H           2.67644918822392    2.28062055809943    1.68233993583295
H           0.74324718342927   -0.12797599736538    1.60268766714264
O          -0.22301638131838   -2.33091858140042   -0.33559923395315
H          -0.54724590010325   -3.22948467104040   -0.40236654964896
O           1.56323048432011   -1.28933540785213    1.26736548775908
H           2.12598357270574   -0.83346736847479    0.62570767453084
H           0.93227531070590   -1.82858403818287    0.72109072144753
O           0.57179256693623   -0.33696468944319   -2.18722992869041
H           0.34381831944261   -1.14100847484541   -1.69786558113545
H           1.15027202422516    0.17924147712973   -1.61027749007492
O          -1.69253942014037    1.14104944374345   -1.71481836615465
H          -0.96303865336977    0.64938595775243   -2.13609066969688
H          -1.26572363836657    1.85404978925215   -1.22308727957208
N          -2.14420254776457   -0.71479572362669    0.34941803239638
H          -1.84062040028912   -0.19538548669007    1.16492104682764
H          -2.15070852059653   -0.05031062756830   -0.43604091531882
H          -1.01778364050748   -1.74547729639835   -0.07377857160844
H          -3.09663025617483   -1.01978363633913    0.50451062595040
