    23
        -45.37114167  Gyration_radius:  2.35667785601 Dipole_moment: 5.895
 S          -1.00880498902400    1.19381579630459   -0.77315596863412
O          -0.45343290297366    1.48528492580303    0.55390727409782
O          -2.44405045601041    1.19584031357270   -0.80491913153227
O          -0.47598704917603    2.29470187387187   -1.73833450063672
O          -0.45487866263781   -0.09594862367208   -1.24852421447766
H           0.98772292164154   -0.33706923480030   -0.82361064483883
H           0.48006660381373    2.37834497372454   -1.51911334254526
O           1.95354073117608   -0.50509478802788   -0.58000311627002
H           2.30643708031795   -1.04266409053685   -1.29230351569569
O           2.12718963804836    2.17371121684935   -1.22875760529243
H           2.61790363712570    2.11507026422653   -2.05163044474404
H           2.18027789750381    1.30013382611101   -0.79873145780959
O           1.32486525773932   -1.93830964273737    1.62400264280160
H           1.67084127553106   -1.35805323937734    0.91060172595286
H           1.24122310646285   -2.81532401504439    1.24487842215498
O          -2.47211126494244   -1.37860311660912   -0.09061474319587
H          -1.71192747083661   -1.25206455161175   -0.68918164110431
H          -2.98114068301404   -0.57018161052171   -0.26923621401507
N          -0.98633201224001   -0.58350865722121    1.95209999428359
H          -0.11055030322803   -1.15317853474681    1.98463704280820
H          -0.73710288034866    0.35762829337188    1.46929729627519
H          -1.68160554921555   -1.03145892017893    1.29151499943832
H          -1.37214393569820   -0.43307245871172    2.87717714299375
