    23
        -45.36218993  Gyration_radius:  2.3188395173 Dipole_moment: 7.251
 S           1.06175027414374   -1.46445015204629    0.94294225526660
O           1.94751061650982   -0.30374368518930    1.07207337101951
O           1.48936396378061   -2.64769719105240    1.60353030888772
O          -0.30598369910327   -0.95132628811599    1.66293097467671
O           0.64341192328945   -1.64503144195347   -0.44861089602618
H          -0.76777007874614   -1.41178751658155   -1.28108068451226
H          -0.00319730038870   -0.22899072326745    2.22772434368251
O          -1.55224133885292   -1.13669957850083   -1.81309522384446
H          -2.10362760758340   -1.91624509438772   -1.88743202766598
O          -0.38670422749666    1.65158556937572    2.56122927038739
H          -0.72527572956515    1.84617641984733    3.43679504694140
H          -1.11560050045398    1.76620627414029    1.94135568777554
O           1.11563026607844   -0.18571083662585   -2.63690751895075
H           0.24664855048028   -0.32943049521957   -3.02669266899416
H           1.19435580891716   -0.88245220990369   -1.95395076959042
O          -1.70893093372496    0.76873814551241    0.08866237831043
H          -1.41436547518667    0.06731381414451    0.70030437619475
H          -1.91691581326828    0.27772187190685   -0.72846107229168
N           0.85862690952086    1.38099522708117   -0.49959391791004
H           1.01796435980037    0.95956361092794   -1.45104081858379
H           1.38067701692246    0.72836891381912    0.20143645444231
H           1.20853079224465    2.33021495987710   -0.43483537665961
H          -0.16385777731270    1.32668039618921   -0.27728350254832
