    23
        -45.37479390  Gyration_radius:  2.29639838729 Dipole_moment: 7.187
 S           0.18279155177573   -1.42871196426952   -0.70291361687436
O           1.50510417185684   -0.86240197885267   -0.43875599128262
O          -0.39607936395901   -0.95319003734538   -1.93413041476780
O           0.34534738297175   -2.98140722096458   -0.82545466232812
O          -0.69868488749480   -1.18407044925850    0.45023650807335
H          -0.39242130827031    0.04708990346409    1.43341566135347
H           0.78467036506192   -3.22427050429696    0.01058282706440
O          -0.32546534615154    0.85666210856587    2.00743040351338
H          -0.91716513885083    0.70679848467487    2.74650508322177
O           1.42252149356975   -2.61122568056958    1.57923223279127
H           0.56632748073723   -2.27002917810943    1.85851185944194
H           1.80662211060386   -1.90120956608697    1.03733344642844
O          -2.34302598902656    0.49936583689276   -1.07622459503439
H          -1.70138744792114   -0.02411938062017   -1.61947752786272
H          -2.45346341544586   -0.06231760038681   -0.30031678824178
O           1.67637754226134    1.59484877867409   -1.26660047979245
H           1.61747558001440    0.62368240299712   -1.07473408893619
H           2.50108545258870    1.88060136122330   -0.86793884611063
N          -0.64233887350158    2.29506369535593   -0.20393263882851
H          -0.52234483260105    1.94734856775805    0.77747973640301
H          -1.38969081823103    1.66346138128341   -0.64502790399857
H          -0.90213690770702    3.27423664598087   -0.24255676854399
H           0.27588119771153    2.11379439390019   -0.70266343569216
