    23
        -45.38009204  Gyration_radius:  2.2880168806 Dipole_moment: 6.351
 S          -1.87167245026469    0.19276140210448   -0.09097476724028
O          -1.29562572042389   -0.89284235865737   -0.89960353361791
O          -1.44380983088152    0.14244367657011    1.28135779845597
O          -1.65330763050021    1.47341963321321   -0.74232072469225
O          -3.43329851816706   -0.05011715175659   -0.09781591158612
H          -3.66938821917982    0.16249259287845   -0.99470401287635
H          -0.15726522671233    2.01729783897903   -0.77127658153361
O           0.81042985078226    2.24450396370153   -0.81672188267589
H           0.85730056989687    3.14706382481580   -1.13528265021509
O          -0.36224258833584   -2.38243182687612    1.15390208505779
H          -0.73956430042747   -1.81034924041393    1.83153921846722
H          -0.75956222619502   -2.04994735662929    0.33044636444510
O           1.07760645581734    1.00534823344286    1.72373706506955
H           1.16104814525967    1.63667768242032    0.99735001954542
H           0.13748729348007    0.74623936645248    1.73023861602005
O           2.06525791872354   -1.30175995634507    0.85674582990179
H           1.29823262057378   -1.88644888909872    1.06047840211289
H           1.88448233494292   -0.47467566894419    1.36348762906915
N           1.23485423445867   -0.38241433335114   -1.39027074118800
H           0.20864434426698   -0.62487042478425   -1.31808284906788
H           1.30649707035954    0.64797676137146   -1.33676790615869
H           1.70347649114823   -0.81702221646330   -0.48926785092286
H           1.64041937134080   -0.74334555262203   -2.24619361636306
