    23
        -45.36164493  Gyration_radius:  2.65482088207 Dipole_moment: 3.462
 S           2.38198050409329   -0.06165237395947   -1.02504748069920
O           1.39073585388418   -0.18651148319395   -2.09760714956169
O           2.79850674575557    1.28921591619886   -0.78871615048469
O           1.89188605382572   -0.72170260686350    0.19131953300332
O           3.64284906461561   -0.89533025121116   -1.50629952697125
H           3.27236326344189   -1.72846491079765   -1.78501030880187
H           1.35022926710440    0.66156899206599    0.94701594138273
O           0.91611000916041    1.51718772892210    1.17319573307998
H           1.62166764321864    2.15831511375610    1.04361281307001
O          -3.31446743382647   -1.10683945932841    1.95221760641605
H          -2.39437952214413   -1.40031205432215    1.92933292050216
H          -3.81698304712911   -1.80368375460490    2.37562476912745
O          -2.34130099961246   -0.37355665228097   -0.57614537613733
H          -1.67286803062486   -0.89199606388001   -0.08562315052526
H          -3.06988941488362   -0.28525045002869    0.05088199978524
O          -0.50800024920283   -1.21002312067942    1.26432280830060
H           0.36240070107780   -1.27993466750628    0.82504918015743
H          -0.42711961377371   -0.41702599053870    1.80453884069399
N          -0.43519450408006    1.37472986347361   -1.14628046755547
H          -0.61456139237604    2.21928736660401   -1.67796397032221
H          -1.31109055491654    0.80387631638776   -1.00009648745663
H           0.27676187106899    0.75094213230552   -1.65692007689879
H           0.00036377530594    1.58716041947562   -0.21140201009313
