    23
        -45.35155301  Gyration_radius:  2.46293326823 Dipole_moment: 6.210
 S           1.92778658788654    1.09182986226462   -1.31368030254962
O           2.67913405776045   -0.13273956262707   -1.37208428994412
O           2.28331605850577    2.16044313456948   -2.16357448314703
O           0.41766303368576    0.71199032129361   -1.55838754987433
O           1.90305343461737    1.59822944212357    0.15444109894772
H           1.64232279773942    0.84570325175359    0.75888449530449
H           0.33882310157937   -0.22873602433657   -1.25091308029293
O           1.06733850189163   -0.31978373555423    1.68958380264240
H           1.56445320278902   -0.36098167905787    2.50802068602088
O           0.73584572004616   -1.71249939019336   -0.61844627213394
H           0.78938057186301   -1.49131699570809    0.32735771800476
H           1.62503297247969   -1.51100883372075   -0.97013502326471
O          -2.20857941588510    0.82957312237328   -0.45792447641368
H          -2.31792285420485   -0.09509856779980   -0.74179199907623
H          -1.47262486014776    1.17106976892077   -0.97728079342560
O          -1.96261216160630   -1.78161798981757   -1.34243859391929
H          -2.02137609797204   -1.95038844568562   -2.28424008600321
H          -1.05470563815825   -1.98838775501087   -1.07759483958550
N          -1.26405025816417    0.66319344236695    2.18364210746115
H          -1.89204117516964    0.09218624336501    2.73512525468227
H           0.13000214776442    0.05794250343966    1.92153139015206
H          -1.68171216841589    0.76592281296189    1.24850319532545
H          -1.22852755889727    1.58447507407232    2.60140201108008
