    23
        -45.37583678  Gyration_radius:  2.28654680535 Dipole_moment: 1.623
 S          -0.93705586115855   -1.21043877935866    0.60148205853067
O          -1.08203070939052   -0.01777161117080    1.42826145163367
O          -1.55921474914129   -1.06233248130655   -0.69948645519500
O           0.44144165707541   -1.64675179108205    0.49217082300284
O          -1.72622517238690   -2.34726814287261    1.37131007833570
H          -1.70335856016171   -3.07940479431984    0.76325180673106
H           1.58933516507781   -0.43507932197722    0.28441596229243
O           2.06234057270993    0.42664941937421    0.26705401553331
H           2.11045136853534    0.66261415527288    1.21103112443861
O           1.13475391363086    0.66902346014421    2.80291580772539
H           1.32988550279026    0.01860008858979    3.47883790238883
H           0.27572866586771    0.40665371507534    2.41686984011567
O           0.67217792328201   -0.88275450265344   -2.33814437471462
H           1.51399334169825   -0.98773854111083   -1.89037879727362
H          -0.00572804237724   -1.17890639784141   -1.71032985870837
O          -1.26768681166044    1.00675576799043   -2.46434104391919
H          -0.53339509990053    0.52534813306126   -2.88043978440102
H          -1.74503090312243    0.30801662740581   -1.98484751888262
N          -0.11509181594126    1.79871189886993   -0.23660971427055
H          -0.55293484534420    1.61993308495085   -1.19493756058263
H           0.86705756716327    1.37684192330970   -0.18315707248101
H          -0.10750781937247    2.78532985418513    0.00045619858386
H          -0.66190529790011    1.24396823548167    0.46461510109656
