    23
        -45.37309198  Gyration_radius:  2.37868174439 Dipole_moment: 2.149
 S          -0.78206247448393   -0.74323620021160    1.88555522326614
O          -1.55805528223448   -0.51673567352575    0.68045069200156
O           0.49210882204190   -1.38179949055026    1.59882707914113
O          -0.66933268800567    0.45121833248019    2.70339903714858
O          -1.59249661348956   -1.79006345690750    2.77432933765415
H          -2.17356186496760   -1.23009268222941    3.27995343188060
H           0.04014874731115    1.25170339868605    1.53953848191599
O          -0.72880778919282    1.67564960074090   -1.64689072577923
H          -1.63513803808330    1.98622443359042   -1.61829940633080
O          -1.11876785393896   -1.03201094035123   -1.85696561527533
H          -1.00311832437992   -0.09033685294613   -2.08100729666177
H          -1.46953318218216   -0.99054527924609   -0.93941372948281
O           2.12104853878866    1.00873583572563   -1.18762324178888
H           1.73808708951151    1.30487394526797   -0.34136632729087
H           1.53729251012469    1.37578706765448   -1.85979126947591
O           0.46829943341890    1.81140409526987    0.84017829254247
H          -0.42653725405083    1.66321478116389   -0.71819799481097
H           0.62561775487334    2.66188862516857    1.25703900612335
N           1.25282387686937   -1.50703897917112   -0.87860871780283
H           0.98549830949575   -1.52121315585937    0.15518725673877
H           1.80124325102260   -2.32252905392070   -1.12446947490560
H           0.32431593351584   -1.45313683296075   -1.40873875663267
H           1.77092711801794   -0.61196149786794   -1.05308530216748
