    23
        -45.37114183  Gyration_radius:  2.35691447509 Dipole_moment: 5.902
 S           1.04724350018646    1.09881325309402   -0.85979203610336
O           1.63858636025237    0.16676994958834    0.10772618219772
O           1.27374938490763    2.47886882206049   -0.53584862134873
O           1.69431846993789    0.78669016997755   -2.24225011951670
O          -0.39865075720461    0.79925502301646   -0.98736110365962
H          -0.73198404998927   -0.68241683617576   -0.87470581625969
H           1.68064567984265   -0.19534749443817   -2.30899263934618
O          -0.97422281880677   -1.66229529127999   -0.83467141117668
H          -1.75665914686871   -1.75400177856076   -1.38260861143343
O           1.30600164761141   -1.83647875854958   -2.38340670521895
H           0.91796690300308   -2.06497361568890   -3.23109647635841
H           0.61077716483489   -1.94690846550494   -1.70858992434760
O          -1.52800296967801   -1.59362885949760    1.81016362638481
H          -2.45469213089860   -1.34778141905097    1.78951318884792
H          -1.26276382149239   -1.76007580356818    0.87886617695791
O          -0.91639880098026    2.48698912620685    0.99613627543695
H          -1.10280228481361    1.92257242817131    0.22209505360241
H          -0.13161401270446    2.96879213261659    0.68577895781108
N           0.21669352168323    0.42594493758901    2.21267731980308
H          -0.29378105577817    1.31132349894780    1.93681729328814
H          -0.44946112156518   -0.37953157738003    2.22124466703856
H           0.90955342950052    0.25796016879407    1.39267390457202
H           0.70549693902126    0.51946040963075    3.09563081883059
