    23
        -45.33915161  Gyration_radius:  2.56022129768 Dipole_moment: 1.687
 S           0.37996664135650    2.00424183036542   -0.77897157543680
O           0.03091136814490    1.66356985028741    0.56732112022179
O          -0.48738951047726    2.86153840418942   -1.51307566808118
O           1.79622928425357    2.71955841742012   -0.69457584442371
O           0.68604722591146    0.74356915125969   -1.57722807180272
H           0.74782207830041   -0.06734258506438   -0.89054062433949
H           1.92376453905491    3.25210400493867   -1.47789352506797
O           0.64598960686519   -0.94292487856614    0.22866480282073
H           0.40605143295382   -0.23772856343492    0.84980512406969
O          -0.48297405920569   -2.79935006334843    2.27415295129112
H           0.23512410711541   -2.44774918685268    1.73667360474349
H          -0.11056191734527   -3.01723490485501    3.12991611876323
O          -2.36555258342052    0.97281481053697   -0.61566383916085
H          -1.87018531059920    1.24469815990477    0.16459185315917
H          -2.17437009848248    1.64562395767084   -1.27657484012590
O           3.23636324651157    0.42700210344652    0.55677770900328
H           2.80203443496784    1.24890920149202    0.31474010526295
H           2.59659330880010   -0.27997473660617    0.43062758482977
N          -1.68153244270434   -1.84845150834224   -0.32716228760510
H          -2.19355760734824   -0.98676848978292   -0.50438890305885
H          -0.26861769303314   -1.39429176205828   -0.02427464947963
H          -2.02375664111469   -2.27638808537249    0.52467221133358
H          -1.82839939059914   -2.48542512722351   -1.09759336694767
