    23
        -45.36987664  Gyration_radius:  2.36263549943 Dipole_moment: 7.988
 S          -0.97052912138217    1.06921324120256   -0.74892579022822
O          -1.65443209816551    0.70391239365276    0.49006465280516
O          -1.67691925846178    2.03046427998246   -1.54841180610860
O           0.38903552169389    1.77832385439012   -0.24551753966039
O          -0.51121915805824   -0.11156679372490   -1.46312913195083
H          -1.73444725047705   -1.91629020298477   -0.58474756093522
H          -0.00644033626506    2.57921949047361    0.16601967236427
O          -1.64516301654115   -1.86445789982582    0.37188823838388
H          -1.73346117945559   -0.88721295656881    0.54835770679985
O           1.70291251645941   -1.42625088329670   -1.70721823931710
H           1.65070293020183   -1.84759937291756   -2.56642040263691
H           0.93097633742919   -0.80425959349812   -1.67194350461454
O          -1.40120835042258    3.44770585813339    0.66219936432023
H          -1.79975033501817    2.74252494010460    1.18652356852583
H          -1.73745524917435    3.28791353839288   -0.23879667382870
O           1.75674349978570    0.29609711079665    1.52956505513178
H           1.19028674136289    0.83698090197016    0.93890744920626
H           2.65967576605698    0.50947554400763    1.28413279414076
N           0.93002444000537   -2.11507741743571    0.73633851390496
H          -0.14485412095216   -2.07040220120729    0.65158370920786
H           1.25051203500116   -1.23176267406738    1.20821949619558
H           1.23513817371368   -2.94101475906432    1.23864891859797
H           1.31987151266515   -2.06593638850460   -0.23733849029283
