    23
        -45.36195881  Gyration_radius:  2.32836600045 Dipole_moment: 6.817
 S          -0.21169003294960    2.05300648260272    1.02309491441305
O          -0.58651268193980    1.97915896967059   -0.37316052449401
O          -0.66804510951496    3.17474634257348    1.75238529920661
O          -0.67462648928222    0.71524286759996    1.68569532656821
O           1.32102029692582    1.95190573421873    1.14862702017035
H           1.69563592598124    1.21793863773202    0.57043468395738
H          -1.50499661591684    0.43931265897334    1.17247755552176
O          -1.09196647974763   -1.79750692051920   -1.07931859747224
H          -1.38889965638772   -2.67558286782551   -1.32019162268953
O          -2.54925193015498    0.17249252772761    0.06158128266789
H          -2.16827390412804   -0.59660125959553   -0.41341764727551
H          -2.27983320917285    0.95382457218380   -0.44144515816010
O           2.33857024831831    0.14679247273164   -0.39740922659332
H           1.66504629210057    0.12879407743904   -1.14582647879073
H           3.13407311197978    0.54055228479955   -0.76113798338909
O           0.43777612948661    0.24864428116101   -2.14283265015161
H          -0.13387239601642   -0.51986584379461   -1.98020772447072
H           0.01111641526904    0.99427543335460   -1.67891122616409
N           0.60268450266731   -1.87139069364247    0.95345273306435
H           0.21195854210470   -1.16761325129319    1.57294816369952
H           0.81499414681275   -2.69329160723794    1.50450602189427
H          -0.45097734859223   -1.90088005668628   -0.31145728646903
H           1.47607021215659   -1.49395485217261    0.60011309495746
