    23
        -45.37283390  Gyration_radius:  2.39936184847 Dipole_moment: 4.664
 S           0.05908917128508   -2.05744455780956   -0.89938148740466
O           0.00999794313417   -0.76203741489925   -1.57619184344265
O          -0.27799439496202   -3.19490738775376   -1.68739130844548
O           1.62344534811795   -2.21189287014628   -0.52079806630360
O          -0.62119297295989   -1.97649591458535    0.39303228135347
H          -1.61336647610837   -0.68957757871852    0.74248243026615
H           1.74459367600750   -3.14514287086802   -0.65628574593211
O          -2.10921072935829    0.11318399429591    1.02567770217084
H          -3.02448722328671   -0.15975670345300    1.10297321395230
O           0.49226914211305    3.03153567990855   -0.38969831713017
H           0.13841455337906    3.59110651498752    0.30286863383681
H          -0.29265534779259    2.58923833981876   -0.81565839886848
O           0.56679807362951   -0.47490411318422    2.19964271643724
H           0.21275873773095   -1.21194746730031    1.65254034110495
H          -0.21464774596565    0.02483916556468    2.45838533862897
O          -1.48608466057176    1.52810802052844   -1.22922133058651
H          -1.04777536678297    0.77438819401460   -1.65349540772652
H          -1.82632689738287    1.16219687956195   -0.39052039676768
N           1.55782943610701    0.62521159870163   -0.00738651529375
H           1.29222229616549    0.25912373623813    0.94806366354411
H           1.28730623814482    1.63943495876618   -0.10277500286749
H           2.54512136018031    0.47716028347191   -0.18637640881758
H           0.98389582917599    0.06857951283652   -0.71048608170419
