    23
        -45.37465113  Gyration_radius:  2.2602018571 Dipole_moment: 4.376
 S           0.07832703061278   -1.90462067832151   -0.39465877312488
O          -0.04282277154732   -1.40466034235528    0.99011976714764
O          -0.63148125606020   -3.12303584071533   -0.59857175691501
O          -0.63663474031174   -0.77095536919797   -1.28670124123117
O           1.45954837123397   -1.84511527495937   -0.84431654424513
H           0.62205069292807   -0.13487043902645    1.60875773004114
H          -1.53041487473154   -0.73781737246348   -0.90464159448840
O           1.02728032118273    0.72808866228180    1.91016217403907
H           1.29052679897356    0.59455946708487    2.82142784570320
O           0.03687066882749    1.86080026523771   -1.74488831090244
H          -0.34710804586224    1.06790735812265   -2.13872293879938
H          -0.50388428320539    2.01835133521580   -0.93687196226604
O          -1.27171301134516    1.76025413927871    0.59789655102564
H          -1.89458788686581    1.02591888353009    0.64233837101900
H          -0.54651639235706    1.54052405314850    1.20108336617372
O          -2.55142331893287   -0.92167967939107    0.55706170311768
H          -1.68502244718061   -1.18976739031161    0.93901001418250
H          -3.07160042922308   -1.72558115270022    0.49882207650938
N           2.06754223515175    0.64563965906393   -0.58745692487859
H           1.87289449556546   -0.40528518129919   -0.74600053711581
H           1.33183041058249    1.20320182650839   -1.12791905337376
H           1.91761503021422    0.83045435912755    0.42173562873712
H           3.00872338234636    0.88768869214177   -0.87766557035615
