    23
        -45.36583894  Gyration_radius:  2.60579771147 Dipole_moment: 5.413
 S          -1.25916477419413   -1.40884377229273   -1.45806432542745
O          -2.15975986823814   -1.21178222345065   -0.33437130666544
O          -1.18128201875717   -0.23722886308895   -2.31233677340788
O           0.04725633356460   -1.90301858200109   -1.05617339638491
O          -1.90166911034800   -2.56812567578955   -2.34135472586563
H          -2.77460912845820   -2.22087209666234   -2.49300585121606
H           1.37843104978315   -0.95540121645671   -1.24427459451329
O           2.19428112968157   -0.40688694654321   -1.13731161739037
H           2.92831922547439   -1.01860246650630   -1.20674400649437
O           1.18876211967537    2.18701713569327    3.20342051954744
H           0.61428577621787    2.93393725261845    3.38511070739473
H           0.96281161265535    1.49428785111218    3.82921512949962
O          -0.84921982279107    1.97737275520138   -1.02236634597318
H          -1.08092953220407    1.13326192766939   -1.49563753484825
H          -0.43100627447919    2.52360743519118   -1.69117813190891
O          -0.42673445506163   -1.33711698112776    1.56823955435512
H          -1.23619746345566   -1.26680948207831    1.00122380654674
H           0.09453239065174   -1.98889658429220    1.08434971982954
N           0.79397935356411    0.87364269235340    0.75865168898541
H           1.55275902391901    0.51259709624093    0.14711568557123
H           1.13666442447475    1.46267341034570    1.52609602105528
H           0.12395618722469    1.39685931869640    0.13483760679528
H           0.28453383110393    0.02832800518646    1.15455816051221
