    23
        -45.37689212  Gyration_radius:  2.30569157948 Dipole_moment: 5.574
 S           0.94814726851025    1.46854863099346   -0.64549473741461
O           1.84894578502290    0.33135017805686   -0.41713044834930
O           1.32327591683120    2.65975448983602    0.04934211628545
O           1.08173225167142    1.78189496823100   -2.21416565409876
O          -0.44053008781640    1.06166066487546   -0.49377150469274
H          -0.96406737836435   -0.05804680865920   -1.57007440336337
H           1.75112100449859    2.45844958115251   -2.24981184782581
O          -1.14253010732990   -0.86463328060102   -2.11054605701669
H          -0.82883283939697   -0.65643695594523   -2.99183574155221
O          -0.62692343904037   -1.30245445074056    2.09607502291958
H          -1.44965037815321   -0.83260411216296    1.83727778936648
H          -0.01068954019352   -0.58958830959685    2.35545204197920
O           1.12521305987503    0.78037492443414    2.14484523147481
H           0.92647423508321    1.71963503387515    2.10334761251015
H           1.60544168902157    0.60112419388366    1.32299929664055
O          -2.53764305603708    0.17963031088760    0.94245654119277
H          -3.05649824940103   -0.21667384499750    0.23968598261041
H          -1.82994194513151    0.67931748031401    0.49778624276632
N           0.46039129098687   -1.87563781643941   -0.18856698550560
H          -0.23744432430102   -1.77734281791914   -0.95341846997661
H           0.95824347999810   -2.75745631680189   -0.23603701121472
H           1.11967136471125   -1.05216762013179   -0.29582840253222
H          -0.02390599108134   -1.73869813253649    0.77741338580282
