    23
        -45.36512610  Gyration_radius:  2.54787864973 Dipole_moment: 4.396
 S          -1.55164215112418   -1.98043780458542    0.58688392528531
O          -1.44809187257538   -1.84068236133075    2.01789538352688
O          -2.48480595270587   -1.02309360764658   -0.00662098871189
O          -0.25355884418328   -1.94497905487939   -0.08495183139906
O          -2.14206411094889   -3.42819188304672    0.29311876611793
H          -2.86800115584164   -3.50819310605210    0.90567580368768
H           0.44663956436971   -0.91497853767324    0.97656879797290
O           0.65468130208300   -0.15175265898697    1.56817852048733
H           0.18575121387778   -0.38514130031386    2.37665181501387
O           2.50316428131652    0.94847113738377   -0.09628074992336
H           3.41114386575493    0.91179633444596    0.20743995272464
H           1.95700370972965    0.56537532016578    0.61406227778839
O           0.76981219658292    3.10123263617240   -0.71214535250636
H           1.44003320846827    2.42022806175056   -0.54432196644907
H           1.19666713829049    3.77286008713335   -1.24451978498327
O           0.73576766487045   -0.28473714789250   -1.96477646416546
H           0.44323753677857   -1.08231154701626   -1.48255166151398
H           1.56941085789635   -0.01317717440181   -1.55618022658405
N          -0.93613559635976    1.00061162190625   -0.37198981451934
H          -0.32059550238625    0.65534728701906   -1.16605120184608
H          -1.73087602428233    0.29355095788110   -0.27668198717321
H          -0.36766935969310    0.92103567992587    0.48847821293774
H          -1.20987193988791    1.96716706007717   -0.52788141580280
