    23
        -45.37126171  Gyration_radius:  2.3708539088 Dipole_moment: 7.040
 S           1.02894753699187    1.06323092195888   -0.95745494625049
O           1.48381275943112    0.66116742234689    0.38242316928733
O           0.89418195911170    2.47782214447941   -1.11353349033735
O           2.10791973444882    0.54340615770385   -1.96218978469265
O          -0.21392189951053    0.32721711157744   -1.28397853307601
H          -0.51562496392718   -1.11143163842694   -0.88110358097544
H           2.16537058723330   -0.41565224532823   -1.77325022577368
O          -0.66486618720172   -2.05516915758127   -0.55521185411032
H          -1.47072914164658   -2.35215288730934   -0.98082790329964
O           1.93316002098907   -2.10490161639705   -1.53987222749602
H           1.90435682045261   -2.49267890048265   -2.41722926542113
H           1.05603249253432   -2.24221842930751   -1.14085686671672
O          -1.86003750190329    1.20282173821458    2.29492422539603
H          -1.57135200755700    1.89606071603719    2.89088434505845
H          -1.87366551232226    1.61809620900056    1.39123406556473
O          -1.62125673150368    2.23682297982709   -0.11235293179326
H          -1.37470369074708    1.46557040275329   -0.65443356303411
H          -0.87543396102269    2.83199128735430   -0.27392071626569
N          -0.11749762823282   -0.73578134186076    1.76674874555206
H          -0.48570872291131   -1.42615119167594    1.09155098330750
H           0.61893899261852   -0.14328796357709    1.20342803531436
H          -0.86613184325833   -0.05492727755680    2.06385009479404
H           0.31820886792844   -1.18985446173860    2.56117222496515
