    23
        -45.36357178  Gyration_radius:  2.55477630276 Dipole_moment: 4.705
 S           0.69131166831544   -0.93389228075803   -2.34118648900580
O           1.83595680137406   -1.53424905036760   -1.69659679308631
O           0.64105802530422   -0.97433696658680   -3.76604651187313
O          -0.58728578722195   -1.84965720167044   -1.85768766646598
O           0.36812127882087    0.37575798385494   -1.74208143328187
H          -1.02455694754253    0.77617430682480   -1.01426207418281
H          -0.71111184844499   -2.39842475693173   -2.62559520867316
O          -1.80364500180730    0.99167718266162   -0.44104833976474
H          -2.39156196558089    1.51938833680702   -0.98314150426139
O           1.76633341363578    1.40542230379361    2.40645333694706
H           0.82984753271723    1.69139017875797    2.33490953531477
H           2.30086600730744    2.17700838420128    2.21462982490462
O          -0.83933429046491    1.92425488886356    1.94690928495974
H          -1.15502023269827    1.67463259307626    1.05653601228957
H          -1.41039785544879    1.47006157553922    2.56904955905540
O          -1.31946927018073   -1.44450370673453    0.79749455035792
H          -1.21334364032291   -1.93008867578459   -0.03220904438629
H          -1.75648987538005   -0.62055819683324    0.53166879462733
N           1.17739751315773   -0.46697098733210    0.56996150869725
H           1.61302558608511    0.12268106265644    1.31004497566598
H           1.79849335267112   -1.15321383012492    0.11519420178163
H           0.30525925852807   -0.93316593967568    0.91289937218151
H           0.88454625717441    0.11061278575349   -0.26589589179352
