    23
        -45.35126049  Gyration_radius:  2.40449220357 Dipole_moment: 8.674
 S           1.92735505107822    0.85393331598030   -1.23821147665315
O           2.01326867060090   -0.50711318337830   -1.69607545893705
O           2.88224795764046    1.79045145119192   -1.69656800230613
O           0.47307722748605    1.36095382676289   -1.53052330345189
O           1.94545850142248    0.84612301720145    0.31821813833872
H           1.45310902049956    0.03965438028540    0.62193425883410
H           0.04690273891755    0.67036274654203   -2.14239877778709
O           0.59198445755506   -1.16423641590583    1.31605893546843
H           1.19653117561105   -1.67826504501503    1.85348490298786
O          -0.35697303453721   -0.64815790415592   -2.84188049954272
H          -0.87966219144639   -1.08229427025684   -2.14400937210826
H           0.55698559334996   -0.95974456463972   -2.71982525660715
O          -1.41469579610828   -1.57664074150321   -0.48795710215216
H          -0.64254045707705   -1.52040774181558    0.10611638178894
H          -1.85951027849382   -2.40327382096891   -0.29512615335678
O          -1.80799109977570    1.19154663986487    0.16307262967070
H          -1.09910493942857    1.55712439233848   -0.38132273758720
H          -1.93661688125962    0.28812639021810   -0.15491770185637
N          -0.66062699348397    0.63741076747508    2.68916943600981
H           0.09314982818292   -0.51803832037560    1.93779810425564
H          -0.02018201041511    1.36866905248573    2.97132795750875
H          -1.20506188356926    0.99513319292679    1.89655380018140
H          -1.29710464675511    0.45868285474260    3.45508130730801
