    23
        -45.37882872  Gyration_radius:  2.32758569461 Dipole_moment: 3.288
 S          -0.14269856436962    0.98995397396563   -1.61843581112402
O          -0.12988352748732    1.98204801703001   -0.55670280952805
O           0.96642753445892    0.05460815992870   -1.54742090787754
O          -1.43292338768686    0.31764998722309   -1.71997088605579
O           0.06298094625612    1.78131339955295   -2.97816408344294
H          -0.62729381371097    2.43766248526129   -2.97711935844696
H          -1.18572429375931   -1.63558488339058   -1.49353013498335
O          -0.43528790484249   -2.10468428049431   -1.09933311710967
H           0.30585881956349   -1.50430222488599   -1.32881305862232
O           2.20155685558178    1.19258588062359    0.49210180716491
H           2.06912385793510    0.66529975392062   -0.31715122735783
H           1.47579923883592    1.83168653465940    0.42428786851829
O           1.67924663413569   -0.62495870342662    2.29972593128971
H           1.89936309572435    0.13381015757012    1.68977193876689
H           2.43749182132341   -1.21002805956858    2.26397839210209
O          -2.06380421971231    0.74053804687475    0.78384726091479
H          -2.13422594512693    0.51831086644969   -0.16885510149744
H          -1.42991315470975    1.47430825436197    0.75504425145063
N          -0.70667974084264   -1.42583435294298    1.43912263449972
H          -0.58022510411127   -1.83081851974219    0.46114364848794
H           0.23665898275561   -1.15292723775572    1.82797356606238
H          -1.29419624445710   -0.54531963209741    1.31502341861703
H          -1.17165189570597   -2.08531760308869    2.05347577812717
