    23
        -45.36873355  Gyration_radius:  2.38862665066 Dipole_moment: 8.168
 S           2.14172861840722    1.06864704263474   -0.01549675483086
O           0.95190660832203    1.62205345100455    0.62650925010275
O           3.24510615138827    1.96577801665758   -0.11751085488574
O           2.62551463374980   -0.13309782076648    0.94603130437885
O           1.77622985982909    0.37235456984592   -1.25383842384708
H           1.07955295083567   -0.93016613774312   -0.73527110751500
H           3.28319617725190    0.29725388290672    1.48194509696460
O           0.55597853293285   -1.72928759898314   -0.44107391633994
H           1.16108712894876   -2.46870210196306   -0.50755626680354
O          -0.47815814195140    1.67646797085878   -1.57611103761296
H           0.36441411258454    1.26971778339701   -1.85854495393062
H          -0.24062877890415    1.97209239193085   -0.67505844444397
O          -0.22851213729945   -0.35278592715959    1.90702136517360
H           0.19477643219577    0.46805825285255    1.57376097014265
H           0.13747787302347   -1.04658451475117    1.34052647456590
O          -2.76691564649231   -0.29006742966882    1.31374977956486
H          -3.21559372400146   -0.92520399452926    1.87272234890631
H          -1.83368932508512   -0.22278998185813    1.66323438751407
N          -1.77301663529873   -0.54043551411930   -1.12525785793695
H          -2.35945264040508   -0.86004109333091   -1.88778412350737
H          -1.33495262646561    0.42524946419714   -1.34775613773002
H          -2.31350580550605   -0.45584238875816   -0.22281393998410
H          -0.97254363806949   -1.18266834268643   -0.96142715794819
