    23
        -45.37623439  Gyration_radius:  2.39709833789 Dipole_moment: 1.847
 S          -1.80353664397541    0.52404136270808   -0.18344698558751
O          -1.51430769513792   -0.71673215440492    0.52442151809345
O          -1.40371295621568    1.70080560212787    0.54759162577198
O          -1.25661684985561    0.48444981729763   -1.53769726441870
O          -3.37943655708619    0.59176943156191   -0.33524473532074
H          -3.60891967870689   -0.24405054644011   -0.73191711120927
H           0.18992972179522    1.33829731770918   -1.31448706127228
O           1.01505791356223    1.68363319292599   -0.91363675896571
H           0.73258993611979    2.44538110464816   -0.39974950043810
O           2.01872693777972   -2.50748323339171   -0.24806932950444
H           1.50466060205676   -2.19340467315502   -1.02574470851493
H           1.63498163790555   -3.35144855885604   -0.00528532136475
O           0.19614329977605    1.50328281958983    2.69950887122233
H          -0.26990659020594    1.79452371370922    3.48366676700537
H          -0.42523480588250    1.63597149190666    1.95401701203004
O           0.48620978133340   -1.44323401517883   -2.18843922328052
H          -0.23450049005018   -0.83497871749323   -1.92438373102988
H           1.00045097384082   -0.95802080182213   -2.83709739641619
N           1.05191894445320   -0.30115805825318    0.90429017675626
H           1.22328926435488    0.45534515533964    0.19457048214698
H           1.17857834105802    0.10075998586519    1.83850654211502
H           0.03242015931820   -0.56762854342074    0.81305628338278
H           1.63121475382480   -1.14012169300035    0.68556986883259
