    23
        -45.37726338  Gyration_radius:  2.22137276778 Dipole_moment: 6.332
 S           1.35400179860373    0.37337782489708   -0.72796208833519
O           1.10265835094200   -0.72996738014692    0.24364910044377
O           2.33757025776802    1.29954813631414   -0.27378369484652
O           1.86176254217321   -0.29919489509311   -2.03624483571455
O           0.05999887339468    1.00124397697408   -1.03304215241038
H          -1.19841028340233    0.11060612604665   -1.37804368532768
H           1.29604635250142   -1.09274801411097   -2.16913856960628
O          -1.96156859819984   -0.53106462314292   -1.44990365983819
H          -2.56097006551005   -0.15930803991080   -2.09825871396217
O           0.16933662202886   -2.29297885546596   -1.73324490097904
H          -0.71162956506514   -1.88898785254009   -1.78442290968851
H           0.50569595479760   -2.09631700500063   -0.84464881269587
O           1.55686971136618    1.02837032683801    2.30306950949995
H           1.54499026273162    0.25818349006444    1.71265463432935
H           2.23650317607216    1.59112794316544    1.91637185833509
O          -0.74380698968869    1.99614968627965    1.33197720017182
H           0.08027633503172    1.87275439540087    1.85414426663480
H          -0.45463626053487    1.95811838609331    0.39948856798045
N          -1.32774408272908   -0.50888408047992    1.17893585162655
H          -1.92419467676230   -0.66443441025418    0.35065849997261
H          -0.32929321400392   -0.72839835510472    0.87756902564106
H          -1.27671588964928    0.55776330854213    1.37745416994088
H          -1.61674059178728   -1.05496007965293    1.98272134877783
