    23
        -45.37489971  Gyration_radius:  2.40782940293 Dipole_moment: 1.846
 S          -0.92908251686948    0.80913136066550    1.48444998170710
O          -0.38166828583211    1.72710181547714    0.49572741333184
O          -2.06678544886201    0.06426191604553    1.00190265657680
O           0.11835713168305   -0.05235721914601    2.02894346107978
O          -1.44584887504434    1.70902462999101    2.68305106959607
H          -0.72141602864356    2.30561769374562    2.85054609310103
H          -0.11177557221739   -1.46182636979779    1.11898599401492
O          -0.32973205064430   -2.05628364329760    0.37003474390568
H          -1.28644207389626   -2.14592834750021    0.40811923790694
O           2.65571897183410   -0.01359169132427   -1.88409085278405
H           2.70571210415335    0.07537994342843   -0.90901177899830
H           3.26148233990570   -0.71581909011655   -2.12485092821775
O           2.50876043586813   -0.10754149733434    0.82456797862612
H           2.85865674305266   -0.89613846657108    1.24357424289534
H           1.64543216936662    0.04938461346580    1.25854913423963
O          -2.64955597888118    0.11887650022025   -1.61991766450604
H          -2.53016263970156    0.08400685814825   -0.64752036611766
H          -3.34112930230893    0.76317989425452   -1.77406987793706
N           0.01806211971215   -0.05483382198248   -1.39504195000258
H           0.93184549003148   -0.02267721646582   -1.88604925099691
H          -0.81743690223030    0.00113329006507   -1.99176022803672
H          -0.04982124030758   -0.93298141107447   -0.81914508501494
H          -0.04317060005604    0.75288024914576   -0.71699401431799
