    23
        -45.36769843  Gyration_radius:  2.43273764769 Dipole_moment: 4.076
 S          -1.34898736347611    1.44005925998309    1.21583760066588
O          -0.88646897598928    1.57632173982271   -0.17207475284153
O          -2.75284674374423    1.59206270816678    1.38269209256647
O          -0.82917211907217    0.16851584258433    1.77040879497295
O          -0.59768878669573    2.57896329891140    2.01092848762183
H           0.31823151413155    2.44628231668185    1.75019660040233
H          -0.84684151839047   -1.19102780269469    0.95759646179536
O          -0.80360360155638   -2.00795573440876    0.38760710022325
H          -1.27040674549653   -2.69027210161859    0.87176535093525
O           1.42060449374959   -0.40094788582479   -2.67806958650762
H           1.73826804484921   -0.78474293548485   -1.81893336293433
H           1.78941525025508    0.48326733935463   -2.72152806169670
O           1.62910628906861    0.86356867225569    1.56004244469719
H           0.70209134766674    0.53283579278907    1.68219511074284
H           2.08806960608760    0.69716496206715    2.38605825360501
O           1.88271939840041   -1.23229890745954   -0.22221624062714
H           1.06697235400339   -1.68831273350186    0.02830551572572
H           1.92179485078135   -0.43551631932538    0.33893331698242
N          -1.06645143108088   -0.40449180679871   -1.77409082591018
H          -1.85873115812689   -0.38688065624861   -2.40536370772502
H          -1.10210498729241   -1.21380654306091   -1.12798549820175
H          -0.14032547829775   -0.41676231623818   -2.28802401044205
H          -1.05364423975607    0.47397380005012   -1.13428108403380
