    23
        -45.37985882  Gyration_radius:  2.25829639097 Dipole_moment: 2.617
 S           0.09670115627247    0.87492102654087   -1.67328616028791
O           1.37526424349413    0.91672491053983   -0.96609513331882
O          -0.54623105399507    2.15129086518107   -1.78774673583047
O           0.43670029005581    0.38660540556022   -3.15542087451654
O          -0.75887358681841   -0.17552317485590   -1.12845582053413
H           0.77931367139479   -1.85900519715474   -1.37580277651463
H           0.52357046267992    1.19663050308703   -3.64858509870091
O           1.56144690909439   -1.68180546200122   -0.84398997267785
H           1.68737461349267   -0.70966751174035   -0.94089055591562
O           0.92028906393829    1.18762608124691    1.63899009256696
H           1.26476828345665    1.23737274157867    0.72234920590183
H          -0.01167160930082    1.47022968022992    1.55692119785054
O          -1.92241649914569   -1.36728599102085    1.00431007934111
H          -1.66257014217119   -1.12052315519481    0.09838066837444
H          -2.31475150966752   -0.56615386999476    1.36724000569625
O          -1.61409732688444    1.56586376531844    0.73848801251118
H          -1.71802419043476    2.44135576792447    0.35678679279485
H          -1.37751064747234    1.00552827177057   -0.02373577319634
N           0.66544609933315   -1.41594705640231    1.64090700770002
H           1.09748859540646   -1.65945976415545    0.70281785331458
H           1.05094308190480   -1.97659999155204    2.39185231891362
H           0.84304738920120   -0.36648455271770    1.78253471812988
H          -0.37620729380263   -1.53569330210633    1.54243094850507
