    23
        -45.35004208  Gyration_radius:  2.44293648694 Dipole_moment: 3.466
 S          -2.27893491253792    0.62344854670858   -0.12068261863527
O          -1.17301003135689    1.36878713022682   -0.65683058615335
O          -2.75820125910818   -0.49643022257102   -0.84503706214357
O          -1.95453297490790    0.22562674463774    1.32202306554956
O          -3.47507823782794    1.64165644415474    0.04692289961327
H          -3.09265333994673    2.50633775689752    0.18245876173002
H          -1.01947711496917    0.62046558907218    1.56914605170864
O           1.43443156515921   -1.27502134417504    1.32319849855114
H           1.30170644551271   -1.91322054365006    2.02478303101876
O           2.76718669798654    0.66650515301221   -0.17663022990932
H           2.48950658835909   -0.08964261154675    0.36229552973893
H           3.68396524973021    0.51813765582584   -0.41177256678326
O           0.88690126633028    0.32525161319513   -2.21991885035791
H           1.61679767333416    0.55914704898021   -1.62388101074148
H           0.12472317977782    0.82154204986793   -1.89272303451855
O           0.34497752253357    1.10696812318680    1.71559984047004
H           0.84451520751897    0.25206017059775    1.68129539456237
H           0.52093567784161    1.53764352941508    0.86988072346935
N          -0.12656160150404   -1.84742488072124   -0.67975400474222
H           0.26520447692780   -1.24077589691903   -1.40833949052873
H          -0.11904191554814   -2.79340321917244   -1.04206695902664
H           0.81436919516361   -1.54920266582068    0.55729312201255
H          -1.09772933844685   -1.56845616115630   -0.57726049485298
