    23
        -45.37491301  Gyration_radius:  2.28439203151 Dipole_moment: 7.920
 S          -0.14614210638732    1.11192794152825   -1.07631654067643
O           1.00501157916286    1.07603834353638   -0.15964518249343
O          -0.78619287843714    2.39225704769580   -1.14052422966218
O           0.40797801099403    0.77479908301361   -2.49582098082948
O          -1.07983168766820    0.02639734033664   -0.72083932008100
H          -0.60588603637184   -1.43734262951968   -0.56548314996793
H           0.97480695242142   -0.01924833911245   -2.37975872526946
O          -0.21957404784743   -2.35165740855050   -0.39992058395307
H          -0.94389879612401   -2.96679702723181   -0.52481206032172
O           1.67245976322654   -1.54688945690564   -2.17715306302101
H           1.59963403682881   -2.02312074762949   -3.00687711356998
H           1.07704166007266   -1.98588500111577   -1.53953687309817
O          -1.69247417385720    0.38398638972830    1.86983810810434
H          -1.79601798555242    0.24890210471428    0.90798186246000
H          -1.45418035658829    1.33510688722263    1.94138973542704
O          -0.61782850607546    2.79585249563497    1.47399671674776
H          -0.81385371402287    2.82212757754085    0.51508268175488
H           0.34110422371247    2.76344172953861    1.51440921267229
N           0.64280259078867   -0.70771617598453    1.62801094673544
H           0.51024144230585   -1.59518007721918    1.12597480305592
H           0.93006928162248    0.03279631942467    0.88512279684432
H          -0.32225754575371   -0.34394478319212    1.94463919977505
H           1.31698830353478   -0.78585161345001    2.38024175937152
