    23
        -45.37749248  Gyration_radius:  2.24592092475 Dipole_moment: 7.304
 S           1.22525843196510    0.28933589880512   -0.87096974170157
O           1.16161715125065    0.94360403919355    0.45463070299667
O           1.14511227775507    1.25557598403302   -1.93720193494867
O           2.57519424156370   -0.44837352783791   -0.96568309031693
O           0.14624563959029   -0.70821232847966   -0.95064870574714
H          -0.99385487736305   -0.86414387327065    0.16404805220710
H           2.44910272879004   -1.31543397173548   -0.47962845538731
O          -1.69080433761636   -0.87542769352398    0.87538763152966
H          -2.29940813872185   -1.57893671174557    0.64626171467869
O           0.82725205699835   -1.02035179061033    2.25063054181236
H           1.08167016066331   -0.23067078135767    1.73545498864330
H          -0.13014944043561   -1.09098394700255    2.15004010668551
O           1.74403586699210   -2.55179727007341    0.25777591880511
H           1.53824277828917   -2.17694186716099    1.14425975321950
H           0.95434310544192   -2.38896791876077   -0.27587224481426
O          -1.40029167951114    1.67969445672238   -2.10089185740790
H          -1.70668785169086    0.82814680542792   -2.42149472627551
H          -0.41146019656752    1.63164055600307   -2.17749158381247
N          -1.27109390418304    1.75316958892663    0.52307313270135
H          -1.73646899213964    0.89878992495664    0.87609840061121
H          -1.46720593573250    1.83956563649143   -0.52053098786714
H          -1.52968346913910    2.58500711332785    1.04224769173093
H          -0.21096558637459    1.54571167875632    0.58050469232998
