    23
        -45.36031492  Gyration_radius:  2.6111920822 Dipole_moment: 6.131
 S          -2.05019261726183   -1.90928487233896   -0.09934896186355
O          -0.80868850285129   -2.54110425762519    0.35555834236061
O          -3.23283279239415   -2.67589422723756    0.11738457199195
O          -2.21331856082388   -0.61255754603550    0.88545547565074
O          -1.88262050027816   -1.32625445551164   -1.42092453070021
H          -0.75556088987546   -0.36867730798768   -1.81421391120817
H          -2.89557074256100   -0.95283247567739    1.45429756132826
O           0.02479143789898    0.23787571696472   -2.01121470424540
H          -0.06101450814432    0.48347966548121   -2.93308196969947
O          -0.53350396175356    1.53488485822026    0.35211930027346
H          -1.25844217095996    0.95810096795808    0.63134847456265
H          -0.32494931435592    1.23883885817540   -0.55211615750117
O           1.90017631772409    3.03262228038167    0.49352854236313
H           1.90265763124176    3.96672711130982    0.70496901990509
H           0.97433449328017    2.77532530462554    0.38027889766365
O           1.64996306984260    0.53032714501120    1.66224969527445
H           0.74893955238314    0.86174964519575    1.48030117175127
H           2.21751841519557    1.27312064661196    1.41340705857101
N           1.34980108633888   -1.30643826539220   -0.22827483021217
H           1.10008272274130   -0.73168732924687   -1.05263833717905
H           2.10843184313795   -1.94675996429704   -0.43276022199727
H           1.59149733155411   -0.65849320807648    0.57317386078674
H           0.44850066993559   -1.86306826047342    0.04050165215432
