    23
        -45.36931013  Gyration_radius:  2.59195025046 Dipole_moment: 5.895
 S           1.40767625983683    0.94854141328228    1.64774880450559
O           2.03332857821097    1.60300827340305    0.51859710432368
O           0.04204444743617    1.36505009276325    1.90195243142317
O           1.52347400187101   -0.51059262826223    1.55734086104521
O           2.25505127210795    1.38066669883313    2.92444266460515
H           3.12291984088392    1.51375065578458    2.55577487111291
H          -0.08459440303488   -1.14249856115242    1.69632835270087
O          -1.05572772674293   -1.05455854486785    1.59798587263053
H          -1.19528774545208   -0.16146260356313    1.94617407236757
O          -2.87915519862853   -0.94100981262228   -2.86702843237657
H          -2.94714525822610   -0.22336469008638   -3.50084742797506
H          -3.76800692468253   -1.15888208336718   -2.57870641456981
O           1.72411095086359   -1.49961915341464   -0.86753701836643
H           1.78084745755279   -1.06088099085977    0.01494421688350
H           2.01247002531462   -2.40302227446799   -0.72731946272035
O          -0.29057703591330    2.01994336412117   -0.64007153381848
H          -0.52258202596247    2.03578494158997    0.30594728848715
H           0.68460929554027    2.02650172122952   -0.58375526155522
N          -0.78665058634239   -0.55965416018666   -1.00372781421805
H           0.13787447138174   -1.00528204703992   -1.18790973362342
H          -1.49411555434460   -0.82323410442522   -1.69764093255909
H          -1.06309089030466   -0.84036613417406   -0.02249881972786
H          -0.63747325138184    0.49118064743883   -0.99019369846937
