    23
        -45.35516970  Gyration_radius:  2.32999393959 Dipole_moment: 6.146
 S           1.48310083725380   -0.59879922247835   -1.56378249540893
O           1.22933142822694   -1.25451823612661   -0.30388896324921
O           2.26211972554371   -1.28822298603996   -2.51782143620289
O           0.10196761770241   -0.25969288219754   -2.21568846187293
O           2.09663048913907    0.79133457388582   -1.27261212284862
H           1.68181753422670    1.17997802043111   -0.43695968419266
H          -0.43141392297679    0.34117599893906   -1.63514864868347
O           0.95678381818089    1.81375238806230    0.77814463707649
H           1.52381550376959    2.41182194000168    1.26592851532638
O          -2.27714608117443   -0.41496545362243    1.10949723445771
H          -2.23134870299470    0.30628146517640    0.47320956290787
H          -2.07641571817551   -1.21950693021858    0.59653585672857
O          -1.23515796053541   -2.33026408862694   -0.55517619846788
H          -0.30721583250805   -2.07622736185266   -0.40458784782841
H          -1.37320809316498   -2.27528512920274   -1.50262183738315
O          -1.18377397488995    1.52134001167317   -0.76403741228584
H          -0.48045182244615    1.77359474992723   -0.12881867359827
H          -1.35205579303427    2.28478470643066   -1.32007373440759
N           0.31211577922595   -0.18472874287056    2.16580920338182
H           0.71066966915273    0.98389762400269    1.44023954722890
H           0.52233230023045   -0.30119367943360    3.14736508227623
H          -0.69976619836663   -0.28761765645710    2.01658082770636
H           0.76726939763535   -0.91693909941295    1.62790703934411
