    23
        -45.37173749  Gyration_radius:  2.40600564534 Dipole_moment: 2.433
 S          -0.88999295407420   -0.56228771932606    1.30865456796243
O          -1.85628563893826   -1.45395627863304    0.70358352817218
O           0.48791151736493   -1.03338648750998    1.12299547108177
O          -1.04189202798112    0.81910220742804    0.92362700528171
O          -1.14343520904911   -0.61960887265124    2.88447930326291
H          -1.38741272272540   -1.52525578182971    3.05549895985355
H          -2.25840515881129    0.40989810525374   -1.57562251525419
O          -1.67736623037031   -0.34953845817213   -1.65955954034042
H          -1.80915282736943   -0.86198634367215   -0.82500910191810
O           0.43775874485420   -1.45324196266765   -3.27905630291488
H          -0.44254386868072   -1.24970364915414   -2.93723463392962
H           0.37977688573655   -2.32097971784608   -3.68055298501961
O           1.02323171030089    2.43840122647140    0.26889814781353
H           0.10939177614083    2.19615086553398    0.50165465440321
H           1.52750314736567    2.14045280743452    1.05115048607416
O           1.64659508499188    0.97567610956055    2.46634621474732
H           1.32224256856339    0.16284120608608    2.03464274700649
H           1.00457800098671    1.17390030821546    3.15074030497910
N           0.94536005349589    0.22947356032037   -1.12938631633016
H           0.97508368923158   -0.41066938827119   -0.29647682939509
H           1.54667404377317   -0.09211087871585   -1.88555597388398
H          -0.04588489657200    0.18057165997100   -1.45047056473586
H           1.14626433173774    1.20625750218997   -0.75334664688884
