    23
        -45.37539252  Gyration_radius:  2.3086700635 Dipole_moment: 5.170
 S           0.71964311329437    1.12583799951677   -1.41102807472838
O           1.52958294697155    1.22717244621069   -0.20631840497581
O           0.28957661809436    2.37170473047560   -1.96229285679175
O           1.68458876439480    0.44803927869412   -2.50881499947830
O          -0.34372329571745    0.13047771064681   -1.23756384004098
H           0.42519411943282   -1.30349614301039   -0.96008255872226
H           1.82386615655626    1.13604948336912   -3.15295473671071
O           0.90211318630892   -2.09722524670595   -0.62254719566752
H           1.66833598718447   -2.18870175745135   -1.19095398367925
O          -2.09505768263193   -1.54605472422778    0.07053539811477
H          -1.69125957217008   -0.89402541895889   -0.52256929215609
H          -1.57989741330772   -2.34819807441385   -0.04498952907163
O          -1.28230244024932    2.05851784372351    0.44529617466058
H          -1.03968865747378    1.44749482481640   -0.26361263704981
H          -0.98754250679245    2.91916574531667    0.14132742281641
O          -1.47659684375576   -0.02536169572963    2.20600222114414
H          -1.55520652281608    0.85691763728789    1.80483157565336
H          -1.91473399636651   -0.62590212951918    1.56598895707258
N           1.00033631737775   -0.55411397887681    1.59962743238139
H          -0.00589145255873   -0.36171057077361    1.94862883253586
H           1.00819199321378   -1.38970616291269    0.98368762478938
H           1.26314676693901    0.25181042027001    0.95099149981767
H           1.65732442407439   -0.63869220775009    2.36681098010388
