    23
        -45.34007583  Gyration_radius:  2.8536236262 Dipole_moment: 4.593
 S          -2.07241109505538   -1.14627366320336   -1.55263948720135
O          -1.97444911723047   -2.34163696827797   -0.77951696244247
O          -2.53955494214883    0.04757450125802   -0.94359338847275
O          -0.71346180800475   -0.91085364056261   -2.25369321716607
O          -3.01803732695971   -1.47375619683933   -2.78500079437345
H          -2.95738134483456   -2.41510389653181   -2.93783365219916
H          -0.43985964197408    0.06700899551873   -2.27695966319415
O           1.69564150293299    0.56620581132175   -0.20020368734590
H           2.26932368989894   -0.16086369106025   -0.44694061328198
O           2.25638184875859    1.73838224074143    2.21244270355139
H           1.83215946348772    2.59785298912955    2.19620491611951
H           2.15056908055594    1.36810493579120    1.31440214326895
O           0.28656686080584    1.43176820035214   -2.26197232771205
H           0.87620964910799    1.51556829824315   -3.01466227035137
H           0.85352091086211    1.25738582753292   -1.46811395258686
O           0.63909163442404   -0.01551983408912    3.56837106463896
H           1.25096676729748    0.63443903640203    3.16913022131849
H           1.16185053322185   -0.53131000289924    4.18335657444060
N          -0.37705356131821   -0.50062836888929    0.88429969329637
H          -1.18327143080992    0.06655831330064    0.64689397167293
H          -0.25016328918564   -0.47249732884270    1.89678194842355
H          -0.60932792469912   -1.44763301017704    0.60827548182624
H           0.86268956079812    0.12522745173980    0.24097129786225
