    23
        -45.37882868  Gyration_radius:  2.32792566115 Dipole_moment: 3.298
 S          -1.64117958173488   -0.94668349761028    0.18397644151456
O          -1.34040758604036   -0.43445571491746    1.51006957504743
O          -0.81905727570436   -2.10315378936596   -0.15331502755514
O          -3.14279611892964   -1.45746973494468    0.22590877341110
O          -1.61246124872433    0.07505503983834   -0.84836121261747
H          -0.38988580711200   -0.35582133702844   -1.95785276966808
H          -3.15966251484439   -2.08488404408668    0.94236481683290
O           0.40430799016181   -0.87211205604714   -2.21319238175858
H           0.20774633916608   -1.73092344556558   -1.81046468217214
O           1.29733495247359    2.61175303121317    0.08241629836675
H           1.22447628270602    3.26423324986685   -0.61587980831976
H           0.36892166351710    2.48416593992522    0.42576769582546
O          -1.18443360494064    2.13012928569940    0.75501461121745
H          -1.47213162473463    1.62072758638297   -0.02510523366990
H          -1.23353637509667    1.45792132139490    1.45137897859968
O           1.12817146839762   -1.42141189633229    1.45633148484732
H           0.46278675482378   -0.90232922673991    1.93505078187508
H           0.55672374469161   -1.95101993726573    0.86074995553956
N           2.09417296606735    0.13034902212555   -0.44696218307035
H           1.50498241769880   -0.23353687426227   -1.25719791938931
H           3.08523686268751    0.04368348187033   -0.64401898477096
H           1.83718879691180    1.13667743233890   -0.25418782113555
H           1.82350146857225   -0.46089382648936    0.39750862103445
