    23
        -45.37895845  Gyration_radius:  2.38067778257 Dipole_moment: 1.536
 S          -0.74932395282839   -0.92984588984866   -1.23558025854338
O          -0.00296443350828   -1.57660801624151   -0.17031541439785
O          -0.12577014422078   -1.00522321314624   -2.53546517565312
O          -2.10593829232544   -1.76099801070599   -1.35336849650735
O          -1.12909283614234    0.42963409057176   -0.86552247000767
H           0.13483373271984    1.63302090494948   -0.68664596000595
H          -2.33499789485289   -1.70311547891491   -2.27574422066796
O           1.03754442484718    1.96001641578738   -0.50199939195842
H           1.58175775379893    1.56043132351324   -1.21141318050461
O           2.14919762732434    0.32876445841070   -2.31461933182203
H           2.43297305339115    0.53902047893917   -3.20625767262970
H           1.34701890882610   -0.22966081814812   -2.41519076394282
O          -2.15871126122549   -0.53256230056080    1.37349686045871
H          -1.94108895389074   -1.44895647576455    1.18399454148737
H          -1.90093405805647   -0.05282917116190    0.56139179320935
O          -0.56389296450269    0.57037428494267    3.17514752912975
H          -1.24259195496909    0.11309387657139    2.61712833594839
H          -0.87754468163994    1.47027388796751    3.28046594552618
N           1.31724546620840    0.12542290544301    1.33720776152132
H           1.32643837642587    0.97341411884042    0.68121091210962
H           2.25169126733103   -0.14721702116808    1.61997769542671
H           0.69869316883047    0.32780695449326    2.16447588993071
H           0.85545764842571   -0.64425728481218    0.77762509186612
