    23
        -45.35094067  Gyration_radius:  2.37603676403 Dipole_moment: 8.137
 S           0.25188275386679   -0.47674647172634    2.26986409150668
O          -0.12846854184247   -1.21119015778143    1.09121332744489
O           0.89840449597646   -1.19318579054091    3.30358188310534
O           1.13217862042529    0.73588247661543    1.79515034430066
O          -0.98599669632685    0.25609615384598    2.83592106530679
H          -1.27896818497339    0.87068871433790    2.11352924372119
H           1.46438255856648    0.58469452444241    0.87244070786280
O          -0.55854369317494    1.20249538880780   -1.56584880580271
H          -0.85986372731125    1.61813635290696   -2.37486631220475
O           1.36703386157111   -2.18620814073418   -1.06876041567288
H           1.90215502580310   -1.38957117610003   -1.13079700485580
H           0.89511988886423   -2.09574203954617   -0.22853502357896
O           1.90758946995329    0.64865423034022   -0.70446099147189
H           2.47371631471746    1.40714910555922   -0.86046420251975
H           1.03001172450516    0.84948970319136   -1.10496609315988
O          -1.36440728069962    1.96337358003971    0.90654245153677
H          -1.12741179767960    1.66068283509627    0.00410856030496
H          -0.68275696888327    2.58521319133353    1.17213285692237
N          -1.34292411370225   -1.24927486363442   -1.51049848639985
H          -2.20756082354354   -1.64312802486598   -1.85814959903509
H          -0.91203213188013    0.23289889381023   -1.58547643643235
H          -1.30981803714483   -1.37384478113101   -0.50084633647775
H          -0.56372271708649   -1.79656371426508   -1.87081485440133
