    23
        -45.34975333  Gyration_radius:  2.54249326897 Dipole_moment: 4.488
 S           0.35654309006056    1.64739300983093   -2.09805432350268
O           1.14457388946383    2.40043378196257   -1.15464152367781
O          -0.10807953615996    2.31637016802861   -3.25318547266309
O           1.11362509372392    0.37511645082700   -2.51530852821900
O          -0.87487570212838    1.05639184029097   -1.29750505975867
H          -0.81210071249675    1.35476559457426   -0.36389191953133
H           1.34094611176807   -0.14415301165437   -1.67939817453236
O           1.46592390876297   -1.03982567058312   -0.41939808105962
H           2.07741636031621   -1.75889757004537   -0.58881446457895
O          -1.38122272195615   -1.70052765810842    2.30658325459815
H          -1.35490433507003   -2.21942310215671    3.11097136381152
H          -0.59993126816672   -1.10461763768566    2.34230591330757
O          -0.23247605299761    2.21930932519856    1.00931406432991
H          -0.64877351752495    3.04813760172041    1.25366015211181
H           0.47816792561936    2.43367884619001    0.36048052088946
O           0.79706428775159   -0.11386618203956    2.15824236913128
H           1.21446170334097   -0.40474776642161    1.33377610905221
H           0.43783523224981    0.76274215979267    1.96509978736942
N          -0.96524443879485   -1.88996345716712   -0.51706017785613
H           0.50991169500350   -1.44176804423755   -0.44706770299243
H          -1.43844339944180   -1.11275318924223   -0.96389949448000
H          -1.22923979506818   -2.74332768353402   -0.99135316930047
H          -1.29117780050262   -1.94046777834792    0.44914454854297
