    23
        -45.35494951  Gyration_radius:  2.47806740172 Dipole_moment: 5.593
 S           2.58294479835026   -0.19658815979947    0.12243675326306
O           1.39159604829699   -0.20315740619178   -0.71549175626828
O           3.77123652701796   -0.67490767162504   -0.47271336976283
O           2.80617128040186    1.24544917278276    0.64218448477730
O           2.23431360705243   -0.97023825564310    1.41631557875757
H           1.37241249669763   -1.48694375110282    1.28267490812727
H           1.91309917258394    1.61335436689478    0.85663658081785
O          -2.49385456744145    0.91561882668123   -0.48027646117767
H          -2.14883708731610    1.81142089747303   -0.44746264548706
O          -0.00963489826348   -2.00241443610530    0.79475286796414
H           0.11640688960513   -1.64011945122093   -0.09130776217464
H          -0.65631582623880   -1.41046507709628    1.23866770151354
O          -1.64919610329602   -0.11587092438495    1.77948439710431
H          -2.35758262821614   -0.30119357053668    2.39668069985349
H          -2.07490220209275    0.22498987052028    0.94633902334483
O           0.23697810343379    1.68274330590317    0.78047677177584
H          -0.28726550949041    1.20782801144469    1.44258349592943
H           0.35580587331966    1.05927943743040    0.04406394533866
N          -0.96174626563270   -0.20442798392362   -2.40019205427402
H          -0.92846149147930    0.34026700582396   -3.25331436532741
H          -1.18106201332362   -1.15847184796348   -2.66001826377280
H          -0.02468518905609   -0.20164502357363   -2.00334593414137
H          -2.00742102491513    0.46549267420421   -1.21917460616185
