    23
        -45.38134560  Gyration_radius:  2.27235776587 Dipole_moment: 3.506
 S          -1.35180018384047    1.06825975246973    0.34825772448020
O          -1.82558920695821   -0.01506150293201    1.19772384946478
O          -0.06625074060771    1.58530308869222    0.74955563801022
O          -1.39730021749396    0.68063249024292   -1.06157688937358
O          -2.38699707786778    2.25416563570789    0.51192989519236
H          -3.21757795697591    1.83788752143394    0.30564899734402
H          -1.12301791333406   -0.94817389089515   -0.94970401541152
O          -0.92547867491998   -1.86372976855453   -0.64716805288992
H          -1.50520641672102   -1.96855838383266    0.11472943627533
O           0.33127458551107   -0.37103582127740    2.64395046147723
H          -0.56615742516165   -0.31468973952693    2.24180760403272
H           0.64727853809918    0.53802762656028    2.60164116718305
O           2.12728704727639    0.82297545529937   -0.56979584097780
H           1.43871892922797    1.30382916765759   -0.06663506166007
H           1.80388627676578    0.84735917679104   -1.49248540037969
O           0.62767692071011    0.75374411440244   -2.80007058030942
H           0.43076514627412    0.03036379780542   -3.39728806522173
H          -0.15829332749891    0.84976979721975   -2.22471718750510
N           1.44611708681652   -1.44853076873382    0.49756086452729
H           1.85099107520609   -0.57499886983234    0.01010188867270
H           2.12560090730918   -2.19701987033197    0.56969732914331
H           1.10916762661719   -1.12390175081050    1.45039412008657
H           0.58490503158057   -1.74661726755122   -0.03355787216429
