    23
        -45.37879743  Gyration_radius:  2.32688261139 Dipole_moment: 4.333
 S           1.12571014999975   -1.15667136760286    1.05303847825561
O           0.99528692322290    0.12415190275868    1.73984997101094
O          -0.13723139103553   -1.63765175388952    0.53452141981616
O           2.17838431864597   -1.11386398871398    0.05280974806923
O           1.57926232707146   -2.20248150232339    2.14965180037744
H           2.40262961392476   -1.83104081667095    2.44839813826231
H           1.90878376552901   -0.08464521517438   -1.12605402838979
O           1.67586606781980    0.59725861554353   -1.81352475292903
H           2.43365662516002    0.65242918305378   -2.39755341793523
O          -2.21561267733140    1.14368104710043   -0.62637501894681
H          -2.46351329819402    0.62633354912352    0.17102306620362
H          -1.90268115078272    0.46555104957169   -1.27019554461360
O          -2.37021662883036   -0.53197780994398    1.45405746669803
H          -1.51235874847501   -0.94649356442461    1.22065991597343
H          -3.00964211092148   -1.24610316082140    1.47028165487386
O          -0.83287428840997   -0.72370915076649   -1.92652362368871
H          -0.62178372268975   -1.22576461878925   -1.11876183573935
H          -0.00139941531548   -0.30771906647452   -2.18955370632212
N           0.15998877384688    1.90950272554662    0.03677097056197
H           0.75558263528996    1.67851196343959   -0.77635706196579
H          -0.87962284073500    1.68674904027236   -0.22216480114104
H           0.45565916532591    1.24812666918202    0.81540562530659
H           0.27612589689003    2.87582627000284    0.32059552626986
