    23
        -45.38068492  Gyration_radius:  2.28334732836 Dipole_moment: 4.453
 S          -1.70087410568307    0.65657172292647   -0.15998508277694
O          -1.10231476641270    0.27707428217786   -1.43958762240411
O          -2.10560960722068   -0.46260957899772    0.64479541201036
O          -0.82893106677245    1.59431878872436    0.54479669631980
O          -3.01453350000854    1.46433889083465   -0.51522052078732
H          -2.69042169528897    2.23182669771541   -0.97593868794400
H          -0.15537859650366    0.46254229120049    1.63241191621381
O           0.26061587120141   -0.25051800903053    2.15365903899088
H          -0.48213388053178   -0.76874276179655    2.47411212655028
O           1.44786954344530   -1.89569938776112    0.36533862640068
H           1.15100335575075   -1.39729014044392    1.15583910120009
H           0.63160486964704   -2.32461799688705    0.02068637171434
O          -0.95295979899787   -2.46694098345627   -0.65933007522420
H          -1.03188831821557   -2.08925527987358   -1.53902154640271
H          -1.47545728185995   -1.86305819910322   -0.09443292162768
O           1.77115874106324    2.15784374749311    0.50384056444178
H           0.79287416953427    2.16842861218842    0.54010694341700
H           2.04979654126814    1.83397143578061    1.36459292949521
N           1.51043587440304    0.14004234538999   -1.23070999410028
H           2.04126853727517    0.08907933062022   -2.09259864126356
H           1.61996066738479   -0.75345243955365   -0.62591527490821
H           1.79088735154986    0.96651926975319   -0.64680448363483
H           0.47302709505938    0.22962736198687   -1.42063490565597
