    23
        -45.37892903  Gyration_radius:  2.30147995404 Dipole_moment: 3.016
 S           0.93822633363378    0.50965426318181   -1.05015200192154
O           1.77930817659241    0.78054682296537    0.10860004670953
O           1.06470456749907   -0.83801678632939   -1.54079754224588
O          -0.47288918087113    0.82342654928117   -0.72278306024354
O           1.35825664331482    1.47857491482260   -2.19717155219093
H           1.11495916998968    2.35896168203984   -1.85200850212475
H          -1.31715851534588   -0.67619866591311   -0.78223714583744
O          -1.81040440797759   -1.51194013165213   -0.64785348040399
H          -1.95311420621562   -1.86787293487324   -1.52636673624464
O           0.46980051579432   -2.70979978566236    0.24475778815469
H           0.89462154440574   -2.21796117665870   -0.48880687210817
H          -0.47953759359427   -2.57188476359980    0.06699147386693
O          -1.54848604584400    0.26585842656470    1.69095650691643
H          -2.16450560040914   -0.41364529040059    1.39893988711227
H          -1.21435371848586    0.66376693682858    0.86250180413329
O           0.00710960226629    3.40491490903954   -0.97711765660844
H          -0.67747414112713    3.84797817580475   -1.48335142072190
H          -0.35577592193404    2.53739232861119   -0.71215437224438
N           0.88551942375662   -0.78162232718644    1.96240613856136
H           1.37070098225921   -0.10222755729763    1.29292462446931
H           1.40490511915956   -0.89904150566537    2.82481410361226
H          -0.07617992068737   -0.38962964396375    2.11844836430713
H           0.78176717383086   -1.69123442993578    1.40945959505756
