    23
        -45.37464906  Gyration_radius:  2.39703136722 Dipole_moment: 2.586
 S           0.79880175250040    1.16502265051487   -1.31647483028734
O           1.15453968907819    1.23178182617764    0.10870425253628
O           1.23978296838793   -0.05796397608815   -1.92723045735779
O          -0.61839601232025    1.44970769609447   -1.49253683562512
O           1.58279229190962    2.34902700924204   -2.01962411474784
H           1.18613147221100    3.14140823144439   -1.66861662096390
H          -1.38363537777898   -0.01398340243106   -1.37658489365199
O          -1.77767398059269   -0.85392813619072   -1.04357920078206
H          -2.65738910757095   -0.63773962872718   -0.72717956638263
O           2.00964084886521   -2.39796381255494   -0.86862535199201
H           1.87780370577610   -1.53757393026857   -1.31979890010519
H           1.85181953895007   -3.06485506067028   -1.53885439586739
O          -1.13358525341183   -0.43827065104635    2.89576405487901
H          -0.89775741774750   -0.14813563846458    3.77752368329355
H          -1.27817100274548    0.37973411282664    2.37195256371954
O          -1.17333689152648    1.73801579416587    1.28312422035386
H          -1.66130821839872    1.83013912335449    0.45927039939943
H          -0.24196997896017    1.68355011762087    0.98854976051858
N           0.22963436666305   -1.18977037237473    0.70715867656576
H          -0.59180751086874   -1.20479066925962    0.05290334164984
H           0.70326390697146   -0.26400310411214    0.56286397003539
H          -0.12053698324849   -1.23722466287493    1.68029884006860
H           0.90135719383913   -1.92218351637964    0.41099139476960
