    23
        -45.38060354  Gyration_radius:  2.25761269579 Dipole_moment: 4.470
 S          -0.07636004798778    0.51802869871000   -1.82650367113606
O           1.28029266380233    0.46008510349285   -1.31325680748342
O          -0.86800150198016   -0.61482240052336   -1.33595875786982
O          -0.73353939767611    1.78691238763237   -1.62533243433552
O           0.01351638812666    0.32910353950678   -3.39983379231531
H          -0.30800625414441    1.17300822431681   -3.69753400040043
H          -0.91318236474157    2.17015946385944    0.04567891357709
O          -1.91209014784210   -0.55126004447339    1.03695781691048
H          -1.57699932102012   -0.54608558367927    0.10168434424757
O           1.15934948767948   -2.13068308197873   -0.65495287950022
H           1.76006013357171   -1.43969368455363   -0.97058376094037
H           0.30009593488028   -1.81969774072937   -1.01077898858640
O           1.52897404929949    1.18016775940523    1.23061807519274
H           1.08543598841839   -0.18403910191927    1.65152434771210
H           1.62671185448382    1.03635739515910    0.26547151522302
O          -0.93000116379919    2.11644430819378    1.02192677546742
H          -1.47741936029225    1.34671351423825    1.22409039374605
H           0.69915820922521    1.71235340195193    1.30383160354301
N           0.64406209691565   -1.18214591768717    1.75436867139246
H          -2.78789798043434   -0.93828635339182    1.00124669194864
H           0.91827677357412   -1.70771978185960    0.86942789233047
H           0.95099151939089   -1.65647435333614    2.59541213094749
H          -0.38342755950782   -1.05842578225453    1.73249593041893
