    23
        -45.37140996  Gyration_radius:  2.31793830451 Dipole_moment: 2.496
 S           1.17182725607952    1.02514690156354   -0.93935824856880
O           1.40745309197498    0.52881679330045    0.40613523928146
O           1.30964792790723    2.44445750536727   -1.08530328911438
O           2.33535715279899    0.37127347594958   -1.84204773655935
O          -0.07275200922405    0.48488893146088   -1.48900521653869
H          -1.01247575865097   -0.84522416010735   -1.31889607343375
H           2.73389073789334    1.11283065876005   -2.28908781943135
O          -1.55766340688379   -1.61056047009291   -1.01863622188035
H          -2.47102130870431   -1.33109799454991   -1.10134871733322
O           1.39845899484491   -2.15693872262510   -0.79501646924597
H           1.82146715421387   -1.34031832472032   -1.07479736015887
H           0.66568071172918   -2.30481297133964   -1.39814070894497
O          -1.52779169081326    0.73962196362465    2.52588984128679
H          -1.03423966301999    1.21851831828064    3.19401522078213
H          -1.49100348771759    1.30151934885624    1.71801247378570
O          -1.14259374645712    2.17064283852855    0.28181530172570
H          -0.95419623806927    1.55401606119520   -0.44591482817817
H          -0.42812038003676    2.81265170298768    0.21631892069230
N          -0.24046526760576   -1.26242898772209    1.31449157221904
H          -0.80338886724957   -1.57800329780267    0.49170529974043
H           0.52778288478432   -0.62998729158326    0.92340777320828
H          -0.81586868816234   -0.64939080544951    1.93996728005984
H           0.18001460037218   -2.05562148389944    1.78579376661088
