    23
        -45.37283130  Gyration_radius:  2.28589772088 Dipole_moment: 5.210
 S          -0.59015079032518    1.95535658169003    0.23837771877048
O          -1.48526601265151    0.88791542103010    0.76031060391066
O          -0.68748194577146    3.15922564711272    0.99051936717851
O           0.88792610704554    1.35275674798492    0.46576433045257
O          -0.69532062202505    2.04551725412623   -1.20136864146534
H          -0.16239903122357    0.84617042762433   -2.05932781826461
H           0.89148280809326    1.09374670932882    1.39865550583776
O           0.07355134621347    0.01742462107901   -2.57182707650708
H          -0.04387069141089    0.24559231303817   -3.49500206676646
O           0.72569806477319   -2.06350644287757    0.93316279948347
H           1.43093908552782   -1.69131079309563    0.35394773925913
H           0.64985513873595   -1.46529012770121    1.68978747738259
O           0.05111950633920    0.12423225342398    2.69382381331625
H          -0.13995370923616    0.50293127441078    3.55333559793173
H          -0.70019463497654    0.37138584596355    2.10256211431043
O           2.17745233833117   -0.69331823519511   -0.85094261442793
H           2.04824044513399    0.16100607012588   -0.41463494287156
H           1.64610152199795   -0.62798030834423   -1.65716545833020
N          -1.23808365642310   -1.27172381235113   -0.60501922883559
H          -2.06058962088153   -1.84848272534604   -0.73849917168776
H          -0.81290484431796   -0.98522599314745   -1.50900778720588
H          -1.46975497100929   -0.36271461721127   -0.07719313359389
H          -0.49639580193021   -1.75370812165599   -0.00025911785789
