    23
        -45.37471838  Gyration_radius:  2.41540841602 Dipole_moment: 2.248
 S          -0.21230811725153   -1.22129667148099   -1.63838584232505
O          -0.99886490601156   -1.72106842879867   -0.51539287834295
O          -0.48439582128893    0.16891802754486   -1.93924890752451
O           1.20542179167948   -1.50137103513479   -1.45772651064523
O          -0.67527974245349   -2.04278816348758   -2.91481997805480
H          -0.41365628921342   -2.93866044310696   -2.72416171365402
H           1.90039057008609    0.01621463194629   -1.25879794928558
O           1.99420014453000    0.97493454169955   -1.05934889180706
H           1.35032548705425    1.38255595643383   -1.64892660401705
O          -1.11026361531058    2.56884573380928    2.32885678675446
H          -1.64054243192624    2.13593369073363    1.64636234012953
H          -1.65545100211472    3.26402203469162    2.69842676162061
O          -1.82326571429465    0.74150604256168    0.21473094632844
H          -2.04418087630176   -0.19173030606079    0.33999040844175
H          -1.46324170377004    0.74176366836640   -0.70150609039306
O           0.93765071050073   -1.90681468495584    1.25425105432186
H           0.11426040742068   -1.98390513801151    0.72224096266426
H           1.62999473961979   -2.05728535017224    0.60021066568548
N           0.69489625400537    0.72734579036955    1.23536361478403
H           0.79963765852348    1.35972345214313    2.02540056579220
H           0.87912317820679   -0.28575222786486    1.47217214196706
H          -0.30030562313403    0.78869906816357    0.90463980867330
H           1.31585490146786    0.98020981061306    0.41566930889895
