    23
        -45.37156351  Gyration_radius:  2.26887191966 Dipole_moment: 6.441
 S           0.85684983079880    0.67608855239060   -1.06657517218098
O           0.50883407308078    1.95502759393147   -1.62619183636308
O           2.04727007559914    0.04944795308454   -1.59809730321961
O           1.21098671972295    0.90780672425359    0.48456170205748
O          -0.27015752403033   -0.26368548017062   -1.03924226444647
H          -1.17840614792717   -0.69154424423228    0.15726419139657
H           0.39100869781922    1.30739535421484    0.93062489709973
O          -1.58678189047461   -1.03798623133767    1.00407241443380
H          -2.43921853518423   -1.39853340185045    0.75718869244399
O           1.45347066292323   -2.42070771450586   -1.31835952564415
H           1.82516054275993   -1.51615802095508   -1.53307136721754
H           0.58817763980545   -2.40837140509960   -1.73891392678729
O          -0.98807346168833    1.64496284015057    1.55174396463107
H          -1.42174734206111    2.09275246554177    0.78498874224216
H          -1.40700750148897    0.77334482757644    1.61270637665537
O          -1.85077749736251    2.62348247190463   -0.74339633787882
H          -1.90693608813654    3.57005676973907   -0.88658526208297
H          -1.01237657692442    2.33918953598434   -1.18368764840336
N           1.04529777678329   -1.66224548051412    1.12439588796624
H           0.02614481026211   -1.68623392583878    1.31831740636675
H           1.22901071415998   -2.11696931644544    0.15194506890590
H           1.28846114511489   -0.64754468965233    0.99055026401371
H           1.59080985643878   -2.08957519819323    1.86576103602813
