    23
        -45.36491657  Gyration_radius:  2.38008651781 Dipole_moment: 8.174
 S           0.53289666633466   -0.12907177590818   -2.28011209214484
O           1.79891609483544   -0.64477608027783   -1.70037571307240
O           0.30715397942160   -0.53255326571520   -3.62031487616971
O          -0.56453738667539   -0.44433691317577   -1.34435247065943
O           0.66570272726458    1.44194367587767   -2.24319727044193
H           0.67701641802580    1.71205904659483   -1.30566885510758
H          -0.45548714636541   -1.52646935505400   -0.22285345086667
O          -0.31074598460925   -2.12284856263262    0.57012795732789
H          -0.22143747766971   -3.00820620351172    0.21563163179206
O           0.54752395012213    2.16167277859618    0.37978960679003
H          -0.43068234436395    1.89511790720326    0.39815561677966
H           0.57021637090525    3.11476604515653    0.47277206326876
O          -1.94852670460037   -0.66891041139750    2.21200359285302
H          -1.40901936839502   -1.30219176322292    1.70587677623370
H          -2.81392830524314   -1.06670055915735    2.31792035176358
O          -1.83920125449439    1.25120231297765    0.26259974838254
H          -1.96944189495351    0.67827602557829    1.04286984148808
H          -1.58001773563974    0.64417097868177   -0.46078683750516
N           1.70378881404827   -0.28410831664921    0.76819817594340
H           1.33425008366907    0.67109120305014    0.88038068131331
H           1.00382616437563   -0.98619892089177    1.05336893419044
H           1.82175663963504   -0.45076397937932   -0.36484174314792
H           2.57997770436599   -0.40316384676344    1.26280834101177
