    23
        -45.37156355  Gyration_radius:  2.26872008505 Dipole_moment: 6.440
 S          -1.07045132505946    0.74457015082342   -0.79402580304956
O          -2.45347509628025    0.74272481970511   -0.39753847575331
O          -0.75595684577311    1.46322630577919   -2.00924122523431
O          -0.24491384908223    1.53387483541481    0.33765251558933
O          -0.47381131696418   -0.59630393725117   -0.80143226912717
H           0.47743279256324   -1.26805190274900    0.23976709239174
H          -0.38626860211506    1.04669115510824    1.21742542657590
O           1.21486339759723   -1.54709169516022    0.85785760675898
H           1.22689603765257   -2.50473417560646    0.83817580639344
O          -0.44464856158200    0.07799908892547    2.42524666575020
H          -1.32298784230876   -0.34641686960921    2.26778682957306
H           0.21286183131496   -0.59225474405059    2.18543510548977
O          -2.73585633277944   -0.92756491470670    1.58345203699484
H          -2.67744004979408   -0.38197343747966    0.76090624938780
H          -3.56576370338098   -0.68089707809556    1.99587162989724
O           1.25357535270498    0.12621289798410   -2.84983289533548
H           0.87009107186222   -0.75477937947046   -2.80075930439803
H           0.46866433274151    0.72677728210622   -2.68920098852701
N           2.12055391650258    0.63689288460809   -0.46316165958873
H           1.89673713386676    0.39871442571770   -1.50212350138413
H           1.28310576077266    1.18041459345611   -0.13150768982306
H           2.12521759771345   -0.24186379446481    0.08849792144445
H           2.98157429980565    1.16383349904752   -0.35925107403454
