    23
        -45.36270891  Gyration_radius:  2.27279099959 Dipole_moment: 6.456
 S           1.59518869852689    0.75083999707468   -0.69823001057407
O           1.03828436304463   -0.18385410929868   -1.65194988103446
O           2.28397955255664    1.86186067640042   -1.24542124068872
O           0.47479000764208    1.22569922299558    0.25449150462408
O           2.51793047760130   -0.02782054589365    0.27057944585617
H           1.93889625486521   -0.73329478696593    0.66743456010515
H          -0.48310850255945    0.94474743091838   -0.04476127841262
O           0.84256583037787   -1.71432231316975    1.36348473214128
H           1.26820101323397   -2.21136464239330    2.06485185939915
O          -0.55795137186418    1.75963749075887   -2.59871962006412
H          -0.00494253078960    2.54189699873083   -2.55078476477495
H           0.05181568541886    1.00680602970089   -2.55142660681600
O          -0.85596032737053   -1.92437677718947   -0.91574546725023
H          -0.14356715566138   -1.49041086887202   -1.41781816998914
H          -0.42970386334599   -2.20724361009587   -0.09766773024164
O          -1.80919957380628    0.50880388152956   -0.51219815469774
H          -1.63941127344654   -0.44927790193626   -0.70777661868302
H          -1.76441651599856    0.97397411218946   -1.36585024752908
N          -0.95232918861748   -0.08906249740835    2.43234789970300
H          -1.72477933053147   -0.05682323909456    1.77592617174985
H          -1.33430722482671   -0.17805392059587    3.36579596948091
H           0.16338866623386   -1.11121257265609    1.80147677394943
H          -0.47536367065959    0.80285196525470    2.36196088374307
