    23
        -45.36842379  Gyration_radius:  2.42219219442 Dipole_moment: 6.528
 S           1.25978490227262    2.02346726176370    0.09522258742602
O           1.26266561621821    1.50820829377432   -1.27795768044585
O           0.89796003169800    3.39253582802472    0.22047701664011
O           0.42639027836525    1.12713733754538    0.93483862815701
O           2.73357981159510    1.82607820054562    0.62923786711980
H           2.89388964522388    0.88769085431609    0.49253939342691
H          -1.10672691547224    1.02029936657026    0.61339127426675
O          -2.04634499423789    0.87346528320549    0.30638334877134
H          -2.51063639565079    1.68492514563475    0.51700525643680
O           0.12071508747590   -2.32783058792003   -0.57600474284382
H          -0.57336679086164   -2.33651777141929    0.10868288522847
H           0.91759777502012   -1.97709723622960   -0.13035588045301
O          -1.90334865716224   -1.77175514675688    1.17021047104500
H          -2.00454479522981   -0.82172458746186    0.99020176393280
H          -2.78133629169041   -2.12269677431272    1.32238806754388
O           1.97225359810302   -0.91508257624277    0.83458533194377
H           1.30961997807859   -0.18177789146532    0.92818225732699
H           2.13687065363411   -1.23926176942919    1.72233716294288
N          -0.62181053388765   -0.13804478974972   -1.80819812136398
H          -0.86213791984323   -0.18884631845728   -2.79139132863446
H          -1.40369236995649    0.21700643101422   -1.23595530848874
H          -0.31882772213684   -1.09060774039880   -1.41787789954972
H           0.20144602838594    0.55042916745876   -1.64794233042620
