    23
        -45.36424836  Gyration_radius:  2.41663469091 Dipole_moment: 5.562
 S          -0.18414440219715    1.79384468203675   -1.74846750868676
O           0.13890079493777    0.92660598245551   -2.84789083952229
O          -0.53916163685739    3.14290695970657   -2.05159107656142
O          -1.55966320574323    1.16057398972482   -1.09012070004212
O           0.76402501605280    1.64806025769645   -0.62584580979397
H           1.15546405599757    0.11110274534250   -0.94383648013101
H          -2.19121534050849    1.63489030553384   -1.62041228259324
O           1.26130175893919   -0.83344588470593   -1.20736335236423
H           1.06510351587550   -0.77348428853596   -2.15126735618554
O          -1.94730310169817   -0.28986705208617    1.21693093000652
H          -2.05001730448759    0.22947583234689    0.40277020345717
H          -1.56454514998728   -1.14000812957030    0.92140785181189
O          -0.46975547723945   -2.30270833184026    0.15270173821608
H          -0.84354860163462   -2.98889303122036   -0.40063369256447
H           0.12341134046008   -1.76151178918189   -0.43095731426403
O           1.82876367750674   -1.38645953821134    1.52547649050277
H           2.16595269774203   -1.23794464609647    0.63212411103349
H           1.10703497519058   -2.02048819259319    1.41281680682833
N           0.35321031816438    0.83455540675265    1.80402441094595
H           0.51623049921747    1.30543184510430    0.86307045743020
H          -0.63306161658603    0.43590774832866    1.76014061208523
H           1.02380584216218    0.02496778042516    1.85747137374547
H           0.47921133501106    1.48648734868614    2.56945141632379
