    23
        -45.37336699  Gyration_radius:  2.29555256688 Dipole_moment: 2.257
 S          -0.69078151635006    1.02987511042338   -0.11248698120066
O           0.01219858804156    0.80363050472054    1.16152245372781
O           0.17188031085634    1.63192278576871   -1.10744962336903
O          -1.28559326523543   -0.21409567412292   -0.57760790153788
O          -1.84085367496320    2.04997793862176    0.17312909576605
H          -2.26650061187203    1.73695275293514    0.99488210861417
H           1.76707342439172    1.03708168786905   -0.72085639489785
O           2.39093622166649    0.41011377953611   -0.30397092122322
H           2.22954776471154    0.51056172884870    0.63983410252021
O          -2.15929599544339    1.02802652427564    2.61552498881175
H          -1.25104072468054    0.86468658798519    2.28646847086585
H          -2.08285723664784    1.66634278595638    3.32796377059465
O           0.55046546584470   -0.20343935848944   -3.10630780510707
H           0.31152501792506    0.15154932181207   -3.96325695610412
H           0.37511557196193    0.51077736305679   -2.46960585049272
O           0.18658491804981   -1.82280527506550    1.73248057627383
H           0.16650177401629   -0.85178899447340    1.60027139711767
H          -0.71631077696202   -2.06619988153680    1.94581113540014
N           0.84236438133904   -1.69292056867637   -0.83975829828737
H          -0.07456483440344   -1.15945800836918   -0.93407568251891
H           0.99541060728083   -2.28151471429944   -1.65210393346747
H           1.59525222328912   -0.95343662041708   -0.76011702490177
H           0.77294235719411   -2.18583978648201    0.06970927374596
