    23
        -45.37759559  Gyration_radius:  2.35754721856 Dipole_moment: 3.090
 S           0.93562495953653    0.49317488372244   -1.42835898378316
O           1.60710971865501    0.34449089731436   -0.13848200846059
O           0.22912336327847   -0.70898813080602   -1.82292157665850
O           0.10954505446984    1.68454029251542   -1.45635021489601
O           2.08275347435300    0.69509357665124   -2.50412436402732
H           2.51606034625219    1.50753995025844   -2.25740063473946
H          -2.12655009878463    0.95480158653534   -1.17821589032211
O          -2.11319907216097    0.04339185657170   -0.87014480939355
H          -1.38754100785177   -0.37498635668888   -1.37757453855014
O           1.28751234644163   -2.37140506277136    0.00770248568081
H           1.89228118132589   -1.65434514687436    0.23436717001776
H           0.81938642316367   -2.02306290831760   -0.77253724764175
O          -0.36849474442829   -2.43071453969943    2.09265008493808
H          -1.07417996381280   -3.05034944270279    1.90118918623699
H           0.29790533378446   -2.54436931146056    1.37023707646244
O          -0.70499850851402    2.75252328198857    0.87577679475689
H          -0.38650294104712    2.41510098272396    0.01419530734747
H          -0.68567196019296    3.70743137790466    0.80649067667996
N          -0.59421699234332    0.11077549482518    1.33125055725799
H          -1.31416557653144    0.08039184928650    0.55897580131580
H           0.34068466186714    0.22646714291510    0.86201660359881
H          -0.76429421620916    0.94129544373536    1.89858679274819
H          -0.59817178115598   -0.79879771761258    1.85267171147058
