    23
        -45.37737248  Gyration_radius:  2.27838635824 Dipole_moment: 5.991
 S           1.56091890662763   -0.55946927217955   -0.27581856087804
O           1.96059029485501    0.79791316953163   -0.61242768447818
O           2.55322998821676   -1.57303470609143   -0.48500911069352
O           1.22387377659138   -0.49130375239656    1.28245993354774
O           0.27271521797922   -0.88963125193017   -0.90732366504983
H          -0.64291759024207    0.14960899943068   -1.79544879848007
H           1.07177526321834   -1.44018610243491    1.48273161419592
O          -1.18627992179092    0.87258331898884   -2.19516164642988
H          -0.90437012001214    0.93571870910569   -3.10872107423798
O          -2.00445552257897   -0.78668198060634    0.44641931945690
H          -1.15281181177247   -0.92871740635117   -0.02034006195342
H          -2.62559212913118   -0.51389162238946   -0.23213286103316
O          -0.94662618342381    1.12662487660759    1.97192523738362
H          -0.12053710286832    0.66403730283537    2.17024470143652
H          -1.51542569218525    0.43230659911509    1.56719734532027
O           0.95899948410384   -3.07617818578551    0.97865683468667
H           1.68607055692694   -2.83948727944959    0.37008318489144
H           0.18373262008919   -3.21581786281410    0.42895653056503
N          -0.08515593760563    2.30469731944944   -0.21205547930386
H           0.05801219545407    3.30835205061826   -0.21265544976698
H          -0.68623099079210    1.99172141622563   -1.00469905598187
H           0.84061898453237    1.77134563500047   -0.34730005449225
H          -0.50013426628282    1.95949001552590    0.71041881141755
