    23
        -45.37401941  Gyration_radius:  2.29394724041 Dipole_moment: 4.624
 S          -1.26968523201325    1.03356873895758    1.06720781765458
O          -1.06282279965349   -0.36522911553394    0.75195479025999
O          -2.50124820083662    1.58543219130842    0.57339099064289
O          -1.33124808096115    1.11341826435678    2.65794202187257
O          -0.09107672259834    1.82673405665391    0.67792651635564
H           1.27183969601764    1.06594523391965    0.40098966522632
H          -1.87244342203995    1.88119301717314    2.81429303812233
O           2.10413688491875    0.60744787326418    0.09208257624732
H           2.76284185362812    1.29886248133133    0.01039946677686
O          -1.05503559729377    1.38470723822069   -1.73482691055021
H          -1.97330938602387    1.31230304631577   -1.44807452544873
H          -0.62222940979263    1.76815744985248   -0.94577430375162
O           1.16300252873978   -1.64854643820179    1.55277173198890
H           0.33097229563051   -1.13923900920290    1.53589666670251
H           1.83211706909254   -1.02607084370848    1.24692533803313
O          -0.28540096956073   -2.67090201255382   -0.45950369359606
H           0.36511277171865   -2.64109740233367    0.27573081709132
H          -1.03385267723073   -2.17503130652102   -0.09759610757407
N           0.66572719689212   -0.65031129107098   -1.82249625727152
H           1.37248489766940   -0.23359276847115   -1.17521208498097
H           1.06530839496546   -0.85642542033933   -2.73149154712861
H           0.27320822503423   -1.53453265611822   -1.34568357437662
H          -0.10839928632251    0.06320867269796   -1.89685242231362
