    23
        -45.37390230  Gyration_radius:  2.33563315855 Dipole_moment: 3.516
 S           0.27681856686322    0.37817243699608    1.89205029060961
O          -0.84102620786428   -0.54666753801396    1.76663879471857
O           0.08576769582385    1.42782084860470    2.84446573827218
O           1.51026353770286   -0.51347040684859    2.41934264364485
O           0.75054287033281    0.81440137888711    0.57518873039660
H           1.32228435083995   -0.55349140767853   -0.10990044599659
H           1.43741828801069   -0.47570522361660    3.36847076751784
O           1.56324965505544   -1.36784273082786   -0.61361013058777
H           2.22281897397915   -1.81141104685289   -0.07830379490346
O          -1.19649321494645   -1.84214092361871   -0.50864783408986
H          -1.19075989738040   -1.51717002574428    0.41864995435938
H          -0.27198016834656   -2.07127070629809   -0.68775427933671
O           1.17486222156799    0.07769471315425   -2.94770891531458
H           1.39739618106627   -0.57705475544813   -2.26168722237405
H           1.88511744059195    0.72169809850724   -2.93896581187751
O          -1.95490789905145    1.76865542437090    0.92317299974856
H          -1.91286894941611    0.87030363476185    1.27841792210402
H          -1.49878039966796    2.29858513170064    1.58305228988091
N          -0.97711616194635    0.60591964331128   -1.41595010100971
H          -0.38159647265746    0.89432815648727   -0.59534882281768
H          -1.77245101921491    1.23333094102884   -1.48314690574079
H          -0.36024050669760    0.57933883931444   -2.25069065337947
H          -1.26831885465785   -0.39402447219147   -1.17773521376692
