    23
        -45.37126178  Gyration_radius:  2.37037724774 Dipole_moment: 7.041
 S           0.84956776038457    1.24140062458147   -0.91655228462452
O           1.42435842509572    0.78872453465209    0.35960378870074
O           0.55865812292607    2.64067570520712   -0.94688608925966
O           1.91399383674273    0.92120260475078   -2.01582256456807
O          -0.32724968242535    0.40187395750972   -1.23821227772237
H          -0.45108647347781   -1.08899114129375   -0.94650860233715
H           2.08526395314938   -0.03682058216471   -1.90809084676531
O          -0.47999612531154   -2.06636045760214   -0.69544028437085
H          -1.27305033404773   -2.41596393397261   -1.10481737366670
O           2.04947147661126   -1.75412343409486   -1.80061857716488
H           2.01637984854093   -2.07704723456615   -2.70368777397926
H           1.21454863857038   -2.01729984093038   -1.37506505092645
O          -1.82882355906579    0.81227303579880    2.48257982056552
H          -1.57093409017269    1.48410917404315    3.11601929376144
H          -1.94362734705157    1.29208056710059    1.61890222655750
O          -1.85286475688947    2.04901764877274    0.16077824519269
H          -1.18587593406950    2.73392284781328    0.01090282656456
H          -1.55921083446436    1.35394471262007   -0.45582532864970
N           0.06554474456012   -0.88180186224627    1.69923114591526
H          -0.26961238346397   -1.55229012624515    0.98792141778229
H           0.59349752688369   -1.34764485817534    2.42820439218098
H           0.70077327926032   -0.16975015099879    1.15119491920777
H          -0.72972611229135   -0.31113183057963    2.09218898763114
