    23
        -45.37266446  Gyration_radius:  2.544939798 Dipole_moment: 3.476
 S           0.23688774571845    1.41083989594389   -1.52196678898087
O           0.16685706978390    1.43420256030014   -0.05295050958169
O           1.35464352114526    0.62717733235462   -1.98098307372266
O          -1.04278539816044    1.03707555348443   -2.09747907176288
O           0.47464142223816    2.91467327947576   -1.97440222954483
H          -0.41729955020276    3.19463686557721   -2.15356869127446
H          -1.49828107733882   -0.51679200880943   -1.82440692201804
O          -1.77145076079718   -1.40835499633042   -1.49561426283234
H          -2.72971812923757   -1.39731113590932   -1.48416166621622
O           2.35230782746961   -1.60420580477717   -0.97085655561732
H           2.40872456794458   -2.20756228512243   -1.71375879999045
H           2.13133194269318   -0.72833958575573   -1.36067009182593
O          -0.45521067813844   -1.04364534205325    3.06022239307229
H          -1.30179294131962   -1.22866729714412    3.46858926396189
H          -0.39123717662932   -0.06338152980570    2.99447771390976
O          -0.29922434855887    1.59882398658495    2.58806081015781
H           0.47782214720446    2.04587975948533    2.92866689983787
H          -0.21900960193584    1.63948355967773    1.61629453861705
N           0.10247301894541   -1.16892554035177    0.41230204162809
H           0.16443324493327   -0.12536020474100    0.28536513655715
H           1.00159040597929   -1.55890731779108    0.05502792037609
H          -0.06626537523412   -1.36606351880839    1.41855071160307
H          -0.67943786651015   -1.48527622548600   -0.19673876635906
