    23
        -45.38252917  Gyration_radius:  2.27571403169 Dipole_moment: 2.970
 S          -1.64185173787047    0.84120759827800   -0.49072352048541
O          -1.74350933860942   -0.53876439813305   -0.02535104063724
O          -1.63941158620726    1.77578713423036    0.62686924775298
O          -0.54279504522683    1.04330455259299   -1.40885760789669
O          -2.96440304073843    1.13437940042553   -1.31169832370863
H          -3.64153384343994    1.13285941479026   -0.64223861979433
H          -0.22789875034285   -0.64456131221827   -2.30572578212754
O          -0.29798003373389   -1.55833219185850   -1.99309102594126
H          -0.97250452970944   -1.48029157851083   -1.29241918314046
O           0.11716361596019   -1.34883925868742    1.72614884608892
H           0.79328281232477   -1.64100696614283    1.08869182613935
H          -0.68373195725163   -1.19267903352106    1.18490726261833
O           1.95544319818826    1.05265648881044   -0.43169579488939
H           2.11833888654193    0.09316188311870   -0.46927455188370
H           1.13447825155239    1.18680073363585   -0.94628384882217
O           1.80388905395269   -1.70487617846712   -0.42917792743770
H           2.39172302739570   -2.41333208534447   -0.69360500566499
H           1.03998486589580   -1.71931899113339   -1.07120322307680
N           0.61552273998651    1.21810555090338    1.81208115732838
H           1.30718343948826    1.28409584510521    1.00360726888812
H           0.47315808268661    0.17769980180476    1.99727728383210
H           0.91633038995293    1.73028293825701    2.63325934779772
H          -0.31087850077160    1.57166067205238    1.43850323506384
