    23
        -45.35387485  Gyration_radius:  2.34525715712 Dipole_moment: 5.301
 S           0.91232776506436    1.88418366288027   -0.00391246260444
O           1.15730032164611    1.26049234790101    1.27075580768395
O           1.73640781107607    1.52596489203196   -1.09758292088264
O          -0.56408854034462    1.70690225222229   -0.36836713440379
O           1.04612370326104    3.43823829772797    0.23047780864070
H           0.95666740613767    3.59367462368249    1.16812657570805
H          -1.05059619311140    1.34816006367634    0.48621676146570
O          -1.41341448991313   -1.69883787278699    0.83947472257300
H          -2.05098976946863   -2.40622243770980    0.94000315195333
O          -1.43951150108456    0.74971341825417    1.75996249706443
H          -0.56120118634746    0.79133308967255    2.16377477494472
H          -1.56177740320935   -0.20272298289099    1.50424157396349
O           1.62341337652652   -1.21098431778594   -1.74419130798021
H           1.73186657694052   -1.50558922818838   -0.82077578902011
H           1.85863810412260   -0.27454812932657   -1.73974678142696
O           1.41125207274999   -1.50783240584269    0.97683607205753
H           1.48577610127377   -0.56770947646039    1.18796745709745
H           0.47069179812912   -1.72923232933697    1.04211433087037
N          -1.18152847002185   -1.02481657390932   -1.66301289186038
H          -1.36001757855987   -1.48388657606100   -0.15755797084190
H          -1.32490416441785   -0.02401610008045   -1.73199958280101
H          -0.18085966496133   -1.19100589702006   -1.83519479750181
H          -1.70157605659024   -1.47125832054377   -2.40760989577931
