    23
        -45.37137522  Gyration_radius:  2.31545739481 Dipole_moment: 4.168
 S          -1.87800421249669    0.44038392026314    0.87681534203440
O          -1.98505874004333    1.58258277615475   -0.02400287785264
O          -2.98377011315763    0.23411235034301    1.74996399136185
O          -1.88603999025602   -0.85704427051943   -0.11892614858234
O          -0.55535323716343    0.38021939891854    1.48744850492473
H           0.92627458794217    0.94079196555473    1.12142916213130
H          -2.82462113387620   -1.00962568774253   -0.14639614505511
O           1.78338755653961    1.29074262504783    0.77254435618845
H           2.21342848844853    1.72568320956477    1.50983614654572
O           2.09923697125121   -1.34152698055769   -0.27713943461375
H           2.26904570547236   -0.45827349525050    0.07834663207980
H           1.57722244150892   -1.79649599773082    0.41415945329755
O           0.20642293926261   -0.87623242229530   -2.03229656407222
H           0.99337135640336   -1.16134061729744   -1.49225778764825
H          -0.56528854955798   -1.12947857236150   -1.50865631221996
O           0.27207974241641   -2.15273608240625    1.55439778612165
H          -0.06270123607763   -1.23900266026252    1.65208232769759
H          -0.47417728659567   -2.67803972993197    1.26213334832543
N           0.18798462942944    1.64808905901051   -1.39562573481035
H           0.95959875933060    1.74565977708915   -0.71460514484118
H           0.23389147128785    2.35606775466840   -2.11990329459414
H           0.23112634858237    0.65053429855023   -1.80126550483477
H          -0.73805651865389    1.70492939118450   -0.84808210157609
