    23
        -45.38323518  Gyration_radius:  2.2834638773 Dipole_moment: 1.489
 S          -1.50619897891042    0.64244566630100   -0.94137744570011
O          -0.96508698670539    0.14302019724553   -2.18669422253834
O          -1.87990507539130   -0.40627136647538   -0.00591858117169
O          -0.62628988167745    1.62490886236176   -0.31315696065719
O          -2.84223027637525    1.40181665464730   -1.32287985691181
H          -2.71597489563291    1.55951339745168   -2.25268858878429
H           0.97832602206037    1.32595256113297   -0.27726383760193
O           1.93396914968802    1.08221289873818   -0.21314689774119
H           2.42197440245211    1.90258704189090   -0.29793845661359
O           1.35999286612334   -1.08472843089347   -1.83514411955077
H           0.53242596995629   -0.67249261842732   -2.16463524995088
H           1.85177953651324   -0.35485887248184   -1.42500609079752
O           1.38502802894160   -0.40227439255561    2.06177260543957
H           0.59625231175621    0.11750915933689    2.34192336258640
H           1.82469435640919    0.15484148288704    1.39714430075683
O          -0.91516206143148    0.94999951238618    2.25290814594421
H          -0.81814506137911    1.37510743792155    1.37898786189324
H          -1.64778310769768    0.33922661830402    2.13176862816441
N           0.20345225992202   -1.97699871946178    0.34252911486562
H          -0.71593081375292   -1.47682775786296    0.22570152680987
H           0.74328836695216   -1.80649343732629   -0.56103258390616
H           0.72923772474677   -1.47441059571532    1.13167328699323
H           0.07228614345806   -2.96378530933925    0.53247405851128
