    23
        -45.35765101  Gyration_radius:  2.46545420701 Dipole_moment: 4.140
 S          -0.84998216692295    1.29890223396320   -0.07706450370174
O           0.10920968256164    1.69101265324172    0.93144492160054
O          -0.31724517619483    1.02338277900817   -1.36743097131781
O          -1.66076320124841    0.10012759520798    0.44679584103934
O          -1.93275665332836    2.39294169711705   -0.18470084458115
H          -2.07658862105786    2.71484952019492    0.74208856158597
H          -1.06755672631997   -0.72781728183199    0.58252084737819
O          -0.22299036957415   -1.95415629731643    0.74019722623974
H          -0.76199259561844   -2.65897114294144    1.10457496902550
O           2.05896288127719   -0.33963123639098   -1.87208798333983
H           2.33540489858662   -0.30118948181004   -0.93751938637757
H           1.32017722406219    0.28185553709010   -1.93200664964471
O          -1.67142898437587    3.05070142411080    2.31453645151005
H          -1.40528155722092    3.95663359648112    2.49009410099801
H          -0.85483151935350    2.54591538779662    2.13614705606135
O           2.07480255511415   -0.24095339987307    0.87284334941185
H           1.47939153629570   -0.97786851717546    1.05135878721373
H           1.53567940177561    0.55753062041710    0.97091523227130
N           0.38294192297281   -2.54350802323982   -1.68471656642186
H          -0.38475301527545   -2.39681573671311   -2.32741490479619
H           1.08188366393363   -1.80537548110861   -1.87014845969334
H           0.01878081985369   -2.23007166970538   -0.23786066992310
H           0.80893599015308   -3.43749477647869   -1.89256638461609
