    23
        -45.38009258  Gyration_radius:  2.28806012351 Dipole_moment: 6.357
 S          -0.32786885599009    1.65316513827360    0.84078361194655
O           0.98035125279737    1.65003411116654    0.24288089125663
O          -0.57512044351713    0.45480913730854    1.65729119847973
O          -0.37537179316942    2.87368046620516    1.84376409043739
O          -1.41805080915395    1.85391807356794   -0.09907257754857
H          -1.53100893752641    0.81173981395366   -1.29767366789970
H          -1.30206082147765    2.93129928322383    2.05177371665752
O          -1.57809897849054    0.07546525279508   -1.96533993946872
H          -2.22927202591793    0.34586263355761   -2.61429522951469
O           1.97966986319870   -0.42446483095363    1.74460798447456
H           1.06004373985057   -0.17068714647922    1.93525704777279
H           2.33002239507118    0.34082801503757    1.27496382169238
O           1.49192073769697   -2.09587569072561   -0.28453627650197
H           1.60303985102702   -1.43380148434924   -1.00750130372051
H           1.84422092445833   -1.64427232273187    0.51777494294391
O           1.25927207732411    0.01002541525734   -1.88538759505130
H           0.35054058988734    0.01533733659830   -2.21292155784100
H           1.28594253825455    0.69731525418128   -1.19408505454564
N          -0.99981746045101   -1.61154835538793    0.09116647532790
H           0.03789531108487   -1.95059591158138   -0.07684291646370
H          -1.36059663131040   -1.20083208427785   -0.78681176321079
H          -1.59726713707052   -2.35657817062595    0.43074219706152
H          -0.92838539657947   -0.82482393402023    0.79346189371312
