    23
        -45.37652374  Gyration_radius:  2.29485516732 Dipole_moment: 5.120
 S           1.36902475155162    1.16524897262985   -0.78214678602804
O           0.03939450920008    1.27324482480333   -1.35273325677206
O           2.20266067708100    0.17285087433905   -1.42168654944875
O           2.10104035701235    2.55039317203435   -1.03647965018373
O           1.29417128624923    1.00054180334913    0.66904956111764
H          -0.11725985312615    1.60680724799971    1.23277580957780
H           2.90216981106059    2.23345318421800   -1.43894023650396
O          -0.96336389623534    1.78171754144780    1.71626141049137
H          -0.70258286016766    2.11176314122965    2.57800394561146
O           0.75920636830704   -1.51157312247142    1.38837049087087
H           1.13986986907087   -0.61773211384351    1.25807720113565
H           0.88473545485580   -1.95022062237920    0.51117651806276
O           0.83537110034679   -2.10331241819492   -1.17992894155117
H          -0.03194360898219   -1.84165992309130   -1.51179685120711
H           1.43431163483072   -1.35538859679529   -1.38068837522562
O          -1.63335760410408   -0.65654164469614   -1.50207903760295
H          -2.29498614444839   -0.40168575374373   -2.14688884845833
H          -0.97801136670142    0.09896769868710   -1.48030803651674
N          -1.68634201921985   -0.72352780870621    1.18941594401535
H          -1.84739992414258   -0.75871161172735    0.15839524225313
H          -2.41907157042285   -1.19774427102966    1.70378836006331
H          -0.69820773113774   -1.16243377059468    1.35998425704680
H          -1.58942923088207    0.28554319650268    1.46837782925502
