    23
        -45.37143722  Gyration_radius:  2.37353119974 Dipole_moment: 3.750
 S           2.01124983127458    0.12049720401074    0.02340594438054
O           1.86999435319393   -0.03772123188275   -1.40475604115622
O           1.54255571538338    1.39356339482004    0.53428897686939
O           1.40573948172279   -0.99763895444183    0.75775610418335
O           3.56414091153379    0.05749015035164    0.33002936048727
H           3.86331102431269   -0.55796249950456   -0.33135028162383
H          -0.01164756450945    1.66802525783332    0.30893405699637
O          -1.00167482238963    1.71731567732968    0.21150253016579
H          -1.29265455109129    2.36523627504608    0.85602817865396
O          -2.06595650804304   -1.68250649483292   -1.77556044237072
H          -2.91958933900002   -1.55731791777140   -2.19212145016660
H          -1.47613514727044   -0.96752220906716   -2.13384720271338
O           0.16745666680940    0.32995681288879    2.80062848959794
H           0.60655427467787    1.18129691764061    2.85036667313875
H           0.74378076715083   -0.20276812574551    2.22890559556862
O          -0.58591567369421    0.41860224300526   -2.32550773729319
H           0.35478501573462    0.23138691993827   -2.12302128176782
H          -0.84689585191022    1.10594535683666   -1.70192970465760
N          -1.21230931654011   -0.93581135397507    0.62437979029084
H          -1.30189024098163    0.10765311939101    0.56011913311496
H          -0.16697980473799   -1.11275953439951    0.62069343068620
H          -1.59682116784069   -1.26841563980789    1.50335247512158
H          -1.65109807369127   -1.37654536763943   -0.22229658749879
