    23
        -45.37126179  Gyration_radius:  2.37064637665 Dipole_moment: 7.034
 S           0.34023487445682    1.55754543821657    0.74907280409836
O           0.96875215527890    1.24590276739651   -0.54390351448475
O           1.28156279091781    1.82164334350096    1.79200199627442
O          -0.53106975176825    2.83461765874029    0.51751919924319
O          -0.61183049503009    0.47673533092834    1.09337558492296
H          -1.47946293729010   -0.28258664524427    0.09620380971031
H          -1.12145564495997    2.58771881528148   -0.22358832664767
O          -2.00145807285949   -0.76675852135109   -0.61938428337524
H          -2.62150278489534   -1.32919885244142   -0.15249976402466
O           2.09562753152433   -2.39007589235780    0.24755507180302
H           3.04268425102292   -2.26060447839818    0.17408989743438
H           1.82307834095038   -1.89695871675878    1.06738325228684
O          -2.27549944097199    1.91176053549661   -1.30665322526819
H          -3.13492878472974    2.20474512706726   -0.99598676070411
H          -2.25539405854998    0.94324264108170   -1.21199499978014
O           1.35766716320078   -0.85585804059643    2.25270660037334
H           1.81477370189763   -0.00968023270531    2.36051632646823
H           0.46833664241989   -0.56281461979118    1.98288644298819
N           0.56573528717367   -1.07453083941885   -1.48460558411810
H           0.80248898381163   -1.16488787528445   -2.46589045431246
H          -0.44264019433263   -1.23242241613897   -1.32277180482701
H           1.15386380238132   -1.70570057491193   -0.87766248844321
H           0.76043664034505   -0.05183394229843   -1.12836978961407
