    23
        -45.37436758  Gyration_radius:  2.41620655918 Dipole_moment: 3.690
 S           0.05313367049991   -1.79980813024587   -1.03585917312601
O          -0.67222035658362   -0.79967396005519   -1.81200355667457
O           1.48346962341082   -1.58886250014459   -1.03510674212999
O          -0.50609022685392   -1.93018977488775    0.30582069268189
O          -0.18569956106671   -3.19095188385954   -1.76075249187387
H          -1.13299277241441   -3.28831344688632   -1.78186964641038
H          -1.46933083520585   -0.60676119068425    0.52576140929575
O          -1.83699507657417    0.29545149819401    0.36450615339078
H          -1.91838397574390    0.30911344192717   -0.59844949464127
O           1.26843260510880    0.98385293430544   -1.95297646818906
H           1.98563173071774    0.34022802406711   -1.92539458755249
H           0.47477138403701    0.42020418066163   -2.08519341828508
O           1.77085611888251   -0.87375781862940    1.47362330037700
H           1.01904317710631   -1.38707289425407    1.79075589788052
H           1.89182417402152   -1.20775293574010    0.55731548569914
O          -1.42948983012568    2.65845512505319    1.96764407509064
H          -2.07159744599648    3.10715747992504    2.51853271956349
H          -1.88577111303184    1.90559366621296    1.56895291303185
N           0.64927965294983    1.35778621335191    0.59330698438007
H          -0.35109793295753    1.04177342344622    0.55283723076498
H           0.99225119060421    1.41569809807292   -0.40583848385684
H           0.67894795378001    2.24505685579469    1.08936735108563
H           1.19202786545129    0.59277360437686    1.08501985947943
