    23
        -45.37126171  Gyration_radius:  2.37065404489 Dipole_moment: 7.037
 S           1.22212220227159    0.93233106464116   -0.86190755149685
O           1.62079219818270    0.19926078226759    0.34948714610988
O           1.44649159343604    2.34154725111063   -0.77615240331112
O           2.08429796441958    0.35248526824962   -2.03002028294471
O          -0.18152948574073    0.59205305663482   -1.18936236223146
H          -0.82395959147630   -0.77720943743022   -0.99823884121994
H           1.90362649856835   -0.60939761818025   -2.00273342385465
O          -1.19484134279802   -1.69816202580235   -0.81617263376754
H          -2.06924096847375   -1.70780552133494   -1.20866980985693
O           1.25763838625737   -2.20500045993566   -2.02191588952075
H           1.09196114830988   -2.41397714495905   -2.94376720874057
H           0.39325482920364   -2.19249391994904   -1.57469686598212
O          -1.38226310228132    1.19309706822066    2.61366007291473
H          -0.89873039524309    1.67794485792399    3.28457163898830
H          -1.33139145671834    1.75290981236979    1.79297569754066
O          -0.99972026402905    2.54833094379916    0.39177275130740
H          -0.98180092579979    1.84861825970973   -0.28626711725011
H          -0.13525365183180    2.96366980528802    0.26265339272773
N          -0.22019950091528   -0.98673262661935    1.62870503463629
H          -0.78355755562983   -1.43472567659221    0.88706216876891
H           0.61698320050377   -0.50204166328851    1.10438801551286
H          -0.75505559942654   -0.20736975130577    2.09664897861557
H           0.12037582927786   -1.66733233491253    2.29797947306539
