    23
        -45.38009253  Gyration_radius:  2.28797060252 Dipole_moment: 6.346
 S           1.79828961564402   -0.19651005610035    0.52559454989454
O           1.44272507272292   -1.21907919290316   -0.42140727887793
O           0.81705517519934   -0.07375137092888    1.61463880842823
O           3.14729844875671   -0.65069541694348    1.21245725037109
O           2.05800259437976    1.10574648554692   -0.06479651265150
H           0.88083737784276    1.74900268850604   -0.92245718710648
H           3.41614119199565    0.13592120510528    1.67558473694568
O           0.07164046159784    2.11310245053346   -1.37278154825381
H           0.35935751005462    2.89532912649843   -1.84571569828637
O          -0.53942901242323   -0.55278794968128   -2.13127039084787
H           0.23059518335443   -0.90027321550110   -1.64410683454583
H          -0.40743841810493    0.40364831318600   -2.16420660471605
O          -2.36667561841979   -1.01312403906276   -0.26098138531185
H          -1.86318992700715   -0.96730305308062   -1.10832409390593
H          -1.87135944558323   -1.66921907542533    0.28314047878668
O          -0.52259453440469   -2.36852104415044    1.12088449891396
H          -0.06464467734595   -1.60681955796235    1.51680484246936
H           0.07290671327508   -2.64611667000346    0.41578100836332
N          -1.34773875199234    1.12339079580576    0.72890279040442
H          -1.90691766881523    0.25567304918576    0.33514363578382
H          -0.48874816790489    0.71716721670324    1.19173711367106
H          -1.01957590016717    1.69561237919941   -0.06755902332770
H          -1.89653724264352    1.66960691146499    1.38293684379625
