    23
        -45.37507128  Gyration_radius:  2.36088534456 Dipole_moment: 4.355
 S           1.93757357324154   -0.82758431614320   -0.38835481620828
O           1.67362134382725    0.41210648728786    0.33418773208952
O           1.06952971699083   -1.90924496745501    0.07838412258964
O           1.92452834753179   -0.67220719728846   -1.81821062969890
O           3.42021230774812   -1.24280840308312    0.02076008939312
H           3.70552853461702   -1.81133426562171   -0.68873676102298
H           0.62854642439903    1.25535382527271   -2.30884606403853
O           0.10851530371285    1.38576948476082   -1.51073402375878
H           0.72881290177933    1.12814220901954   -0.78811460584548
O          -1.11396725961747   -1.06713763367780   -1.14356964950744
H          -0.74934600750983   -0.25521108654227   -1.54046607172032
H          -0.32807691806297   -1.55666408988140   -0.81777737970925
O          -1.82818529687177    2.46175570153960    0.08444057195205
H          -2.49628974061191    2.85205653773174   -0.48125391187070
H          -1.07441458654567    2.24513461845603   -0.49387603141313
O           0.33585149620311   -0.70291614781012    2.30051372493768
H           0.55215147681242   -1.44345395941715    1.69724417457699
H           0.92148970107110   -0.00879448848220    1.94743049542077
N          -1.91293685416649   -0.04369042565505    1.12335917877502
H          -1.05476062174324   -0.26104570589750    1.73006756993766
H          -1.95935017878723    0.97456629525259    0.91286017936375
H          -1.72350755775833   -0.54000718084170    0.18904233184051
H          -2.76552610625994   -0.37278530152465    1.56164976392247
