    23
        -45.38323567  Gyration_radius:  2.28391969329 Dipole_moment: 1.564
 S          -1.24944864584906   -0.87586701109363   -1.11325705519939
O          -0.49518752872379   -0.50349713477565   -2.29054848854728
O          -0.55574330593634   -1.82320084827447   -0.25439967285406
O          -1.70608854193630    0.28700135567742   -0.35725819328868
O          -2.54471532394495   -1.61347157991298   -1.64804125823552
H          -2.53125747137735   -1.37840508634625   -2.56986548861950
H          -0.67232169401667    1.52913453059456   -0.12291563918731
O           0.00008855905204    2.23055496178654    0.05703011545935
H          -0.47631638385604    3.06203245559159    0.04755145251462
O          -1.37665945084424   -0.60201820208887    2.13772787667896
H          -1.19255521436192   -1.51881489329542    1.91439914119445
H          -1.65997583538688   -0.20677695390648    1.29074548915478
O           1.68556104641996    0.87400402009437   -1.66720186929974
H           0.94004948355552    0.39737386973346   -2.09171658557647
H           1.26695864782128    1.60472342155331   -1.18370869176805
O           0.92611634721710    0.75787453287111    2.21551112634175
H           0.07752992875726    0.29362184572864    2.40267643602813
H           0.68229043669976    1.48991649044616    1.62392111263976
N           1.80713601649700   -0.82241001552294    0.32897623545237
H           1.58694519039961   -0.21829536848909    1.18818405519765
H           1.96051236090892   -0.16361859502029   -0.49508813885545
H           2.59704241312654   -1.43858716976524    0.48190302490276
H           0.93003894580327   -1.36127462545959    0.10537501587734
