    23
        -45.35534695  Gyration_radius:  2.40384424864 Dipole_moment: 8.539
 S           0.39972205438102    1.96359125464166   -0.90514108833471
O           0.04863353751613    2.46754751584323    0.40382426080917
O           0.22640311645215    2.86642077881557   -1.99606931078226
O           2.00369671063509    1.67705048369963   -0.83148772969172
O          -0.14625075555776    0.61758066256390   -1.12454966433967
H           0.43326408038724   -0.20108036789891    0.12495326726637
H           2.28967312806746    2.58021450975765   -0.90447521863691
O           0.73184761811583   -0.87617516076352    0.79272922900717
H           1.62276915517872   -1.11762425385735    0.48156517801612
O          -2.49330559928192   -0.05582653096517   -0.16159821008417
H          -2.29702155910586    0.36763500924901    0.71675667691830
H          -1.76996260728484    0.29669107784168   -0.73007208008962
O           2.97255499453656   -0.93096894124801   -0.73544728948892
H           2.80710331941584    0.02517505257903   -0.75084998681993
H           2.87231407676649   -1.22632885468620   -1.64227025199532
O          -1.31236501174758    0.87686502119273    1.98232408087408
H          -0.86757668505586    1.60291488270862    1.48484368842530
H          -0.59717788642596    0.26484106634300    2.18223918040025
N          -1.39086973352827   -2.29027640377949    0.32608125028695
H          -1.99500182507595   -1.36369314059951    0.07588198903877
H          -1.32628337781960   -2.90680633031725   -0.47601050350015
H          -0.42971350160778   -1.86103610649147    0.56179375880380
H          -1.78245325897140   -2.77671122464086    1.12497876393491
