    23
        -45.35634471  Gyration_radius:  2.34882609224 Dipole_moment: 6.026
 S          -0.19234419865311    1.98292981730551   -0.88949216552893
O          -0.77210631200427    1.29122637239224   -2.01696369576830
O          -0.11885404566656    3.39340306547656   -0.92101828643432
O          -0.97153461686096    1.53982135339387    0.38755271993867
O           1.21834438905661    1.37616912353058   -0.63309165714473
H           1.35650656533736    0.63212995897145   -1.30987728597181
H          -1.46969003119538    0.68518768843841    0.13491562205003
O           0.10346498930648   -2.12507666520236   -0.46907885219086
H           0.12554993373184   -3.06800374061458   -0.30190855433630
O           1.18882324264771   -0.50098739051977   -2.35046686947044
H           0.84526576045097   -1.23671860081540   -1.80569313080239
H           0.41661425443946   -0.04866272124941   -2.72247340967070
O          -2.06655622645240   -0.54493502194475   -0.54432212469753
H          -1.98157374603572   -0.12622211088676   -1.41344785353979
H          -1.36614390537704   -1.23225603530044   -0.50119995070400
O          -0.61498846504574    0.60360280489447    3.00638520312126
H          -1.47905368586896    0.57883210160683    3.42076146863964
H          -0.70957186155499    1.14412410572760    2.20933271470175
N           1.35700276353630   -0.84784716014370    1.42539845815510
H           0.60229792991904   -1.67526125269828    0.29973043279887
H           1.67109159984357    0.00020037201096    0.96328804190396
H           0.70039238345966   -0.55655720620346    2.14732470333136
H           2.15706329301570   -1.26509885806473    1.88434446166781
