    23
        -45.35545896  Gyration_radius:  2.42372218582 Dipole_moment: 5.690
 S           1.49400871362035    0.47856672815243    1.93722022723586
O           0.35318447092985    1.31658369979439    2.19924330613997
O           2.35932777387079    0.17204434062121    3.01204348065393
O           0.95345777228629   -0.84368444845644    1.28502122736315
O           2.32518208808157    1.09081584948503    0.78039169319704
H           1.72178359606376    1.24740876487194   -0.00024440270803
H          -0.04231963176803   -0.79380059741600    1.21646887165654
O           0.80592960832545    1.31872861819364   -1.30906997517478
H           1.29282198800459    1.74306353368608   -2.01742950489005
O          -2.03631046019813   -1.83894602186921   -1.36821073469495
H          -1.97808990667243   -1.58818009427374   -0.43370363018553
H          -2.73848472995785   -1.30701867855120   -1.74661182726384
O          -1.40513285350921    1.82691235784609    0.26781324292277
H          -0.78077990226920    1.79144521805946   -0.47301272380348
H          -0.84404508731577    1.96382626882673    1.05425634972505
O          -1.63594672261037   -0.61762800983566    1.10526667859565
H          -1.94916958911190   -0.54875904860423    2.00946343451125
H          -1.66567262798897    0.31570187996701    0.73393944468065
N           0.76925377831071   -1.23776080563802   -1.69937448153953
H          -0.20020478832736   -1.55376987969548   -1.75084663195239
H           1.14579300364962   -1.57579629880542   -0.81994850320666
H           1.28370624907241   -1.67278495271896   -2.45422441591741
H           0.77170725752615    0.31303158636026   -1.52845110535507
