    23
        -45.37126177  Gyration_radius:  2.37061342739 Dipole_moment: 7.042
 S           1.20317709793006    0.77455322134769    1.02805213768909
O           0.96638676903210    1.32379202143823   -0.31589657820827
O           2.55226101827431    0.35323240445554    1.24271476349341
O           0.86346672863861    1.91949149824337    2.03685240343666
O           0.21680462384653   -0.29876097849573    1.28916377348172
H          -1.23371458672154   -0.29501153744263    0.82091361350874
H          -0.05319228192680    2.17472056605735    1.80588439038765
O          -2.17214738531156   -0.24346920536193    0.45243023013200
H          -2.64583924053021   -0.97824067901115    0.84546850584624
O           1.85683574238076   -2.04503698781910    0.16684493219746
H           1.12677705228505   -1.65470789706258    0.68087516653660
H           2.58294441337947   -1.43946976388063    0.37298898431445
O          -1.74059244171182    2.29698673693823    1.49002273154165
H          -2.17007511842573    2.33981671906061    2.34712389935876
H          -2.03403484389445    1.47072244937712    1.06736715475087
O           0.90992282183702   -2.02628545444892   -2.28757531576265
H           1.67428273175686   -1.87169548444863   -2.84519722879088
H           1.27105097848263   -2.14003063516344   -1.36780692672411
N          -0.66106100665109    0.06280378237323   -1.79665987636619
H          -1.44232290194184   -0.16886792692334   -1.16116273487335
H           0.04141965707229    0.65438479809474   -1.19039968531957
H          -0.13204426042967   -0.80332076071511   -2.08369935623932
H          -0.98030557737766    0.59439311339084   -2.59830497440652
