    23
        -45.36519634  Gyration_radius:  2.27981667315 Dipole_moment: 4.971
 S           0.77420321429960    0.95556302293318    0.81743310272508
O          -0.65824935049113    0.77299458467359    0.79662928654303
O           1.43247457767235    0.51858620880553    2.00453466395406
O           1.36418390492161    0.19223137723307   -0.41570563130342
O           1.12088241436450    2.39602333967907    0.49013059616970
H           0.39675302143611    2.71823527397670   -0.18472558396615
H           1.12708482611394   -0.78459808110346   -0.34340607690464
O           0.67302496124160   -2.26803135900954   -0.09495034035105
H           1.44053279635843   -2.83901677940380   -0.02355020626200
O          -0.75294122481314    2.88594311436150   -1.09762823099436
H          -0.54853757096479    2.27737447923665   -1.86187086158631
H          -1.45370972693699    2.45294290657402   -0.59817108021831
O          -0.11674116790248    0.95973888434502   -2.75816280862895
H          -0.73109620580408    0.27748317339708   -2.40848174954146
H           0.74835977292626    0.72870214061332   -2.40492062737999
O          -1.49965845485752   -0.78447031671187   -1.24654348598348
H          -0.97746470123563   -1.58242493241985   -1.11454589347125
H          -1.35327695076236   -0.24154520833982   -0.45129248807217
N          -0.24402192888552   -1.75640599394141    2.29092250783317
H          -0.26245833947786   -2.36724218442160    3.09842277934744
H           0.40048613549447   -0.98893685605830    2.47789907774115
H           0.28139726378515   -2.18471143102824    0.83800697807799
H          -1.16122727647961   -1.33843536337984    2.18997606227468
