    23
        -45.36133067  Gyration_radius:  2.31202072428 Dipole_moment: 4.947
 S          -0.26131988343777    0.75025202503616    1.10860734640534
O          -1.33984799215692   -0.18274638188899    0.92968217189953
O           0.36552022914130    0.73639583890663    2.38901849664941
O           0.82996928470630    0.44676240460905    0.00978844649905
O          -0.67210736921377    2.15865417961596    0.72133743629725
H          -1.03601691329209    2.13220299616799   -0.27229578688965
H           0.88312607235236   -0.54997755360062   -0.16208373057364
O           0.95601994381579   -2.08338243153090   -0.28235207983877
H           1.86731506676573   -2.37790612710295   -0.34464648584451
O           1.33797171125563    2.30361645989980   -2.00565421986948
H           1.37683480889084    1.62718013478614   -1.31262593994099
H           1.61593071938250    3.12769796931060   -1.60112610725139
O          -1.32439249068688    1.98258299724258   -1.68305850817435
H          -0.44978536777870    2.17796602659086   -2.07793295227467
H          -1.48025047991666    1.02333648908864   -1.83468233073391
O          -1.45084011742633   -0.70154393592726   -1.66733422904723
H          -0.71371247660978   -1.30715666473895   -1.78146975961013
H          -1.59446855707807   -0.64535567710685   -0.70340379307052
N           0.23103653714245   -2.16223466702187    2.23491203520338
H           0.53702508577604   -2.78313572595391    2.97505646576471
H           0.65874752645871   -2.25753763770853    0.66811408802382
H          -0.78016755561163   -2.21077734572286    2.18148969109881
H           0.44341221751744   -1.20489340295135    2.51065976526727
