    23
        -45.36857926  Gyration_radius:  2.54532209966 Dipole_moment: 2.295
 S          -0.90747894305466    1.04235534308877    2.08817644292875
O          -1.97468873384297    0.07996202185044    2.20677780813567
O           0.39590530074323    0.48344348300181    2.44050575908993
O          -0.86734584207479    1.69921569349028    0.78111911763958
O          -1.20357627774412    2.20393772624204    3.13277759766316
H          -1.52110164580872    1.73897834800459    3.90177302006606
H           0.33446153427608    1.76478764641315   -0.34858597656137
O           1.06878810981853    1.59915731311419   -0.98858020362744
H           1.64529346299210    2.36222092549002   -0.93689631896308
O          -1.73852184846168   -0.49332107692565   -0.41106847036832
H          -1.58241315973121    0.44559813518833   -0.18036000025914
H          -2.24715724508622   -0.80439978209477    0.34935836235262
O           1.67257142102451   -2.48343673586845   -1.65522622442801
H           1.90975147193760   -3.16523201923042   -2.28338881560403
H           1.12287418795971   -1.83675569269139   -2.14405184598894
O           0.05559121389613   -0.50695002870594   -2.64649243287294
H           0.41131208211581    0.34728594357070   -2.36738753883470
H          -0.79573060264075   -0.59204555556085   -2.20010381595777
N           0.86764744151569   -0.80760524232595    0.26540493563829
H           1.39563040505013   -1.66366359312308    0.07461795776467
H           1.25537951203566   -0.03021342938432   -0.30058544938325
H          -0.12626305717475   -0.92507003884440   -0.04572176935904
H           0.82907120226666   -0.45824938471660    1.26793785093258
