    23
        -45.35270286  Gyration_radius:  2.58215035925 Dipole_moment: 2.238
 S          -1.77469627353168   -1.59665381399041   -1.16569686944080
O          -2.46117644376905   -0.77807483088362   -0.20558910380889
O          -1.19583293349139   -0.93060682270441   -2.28223087620726
O          -0.75841845537261   -2.49212176010366   -0.45340316239800
O          -2.79668773144805   -2.66370502675782   -1.70774340054920
H          -3.28462178863125   -2.95991987425458   -0.94280492123870
H          -0.18998799394988   -1.92425128745284    0.23100997458282
O          -0.89860842655613    1.16504771293571    0.90070596334445
H          -1.70571663143762    0.68339665421161    0.66433989433202
O           2.66291846336376    0.38035949494204    0.26667606955770
H           2.33145538725114    1.04475361799840    0.91095090203820
H           3.57670801956647    0.20699862946478    0.49641984713729
O           0.52089716970623   -1.05065044813838    1.11491055635352
H          -0.04796488942385   -0.23600661771929    1.16198728471721
H           1.35022792548230   -0.74240753688752    0.69514382955388
O           1.45764430333562    1.87217496070596    2.17913248226414
H           0.55789981971144    1.86900286137610    1.81482443977468
H           1.40695946136428    1.38903198066701    3.00650865418742
N           0.31267802877896    1.39917275559242   -1.43932343660145
H          -0.17418298015113    0.65064654716279   -1.92809398880060
H           1.27083392648361    1.10058604968567   -1.29358666262679
H           0.32698649437550    2.21048824014831   -2.04317660433342
H          -0.48731445166950    1.40273852398063    0.01903909821392
