    23
        -45.37985852  Gyration_radius:  2.25845257047 Dipole_moment: 2.613
 S           1.01188346548110   -1.50966346869328   -0.52070489943710
O          -0.01198420097075   -1.27750359543380    0.49449153108561
O           2.34006566633363   -1.62807817900388    0.00609390997582
O           0.63307013609902   -2.92505019581531   -1.15679210570169
O           0.88856947568229   -0.53993229320868   -1.60722039741277
H          -0.75305994900076   -0.62007178404903   -1.81301379043543
H           1.47621333462905   -3.30826070955395   -1.37842702805670
O          -1.71699457337900   -0.65590541911983   -1.61355280552312
H          -1.78382940115058   -1.36196019365515   -0.96327210312504
O           1.61662624726645    0.53142738716839    1.64397612873875
H           2.52813284363870    0.23003106253536    1.60815254205812
H           1.10915917413026   -0.21524051343171    1.27531481322797
O          -1.29595856228306    0.41105703660090    2.17433449795094
H          -0.98945064480025   -0.38483632344426    1.70336955512876
H          -0.50231110712012    0.76218476174150    2.59177283993752
O           0.95785118677715    1.91809902019543   -0.59641691448514
H           1.32005811638298    1.66517676366718    0.27538737819406
H           1.06292662812628    1.10917246540460   -1.14036637768170
N          -1.60640670701241    1.58715083797186   -0.19767732381286
H          -2.26183895350208    2.34007121287279   -0.37194761329060
H          -1.63379740538470    1.25211264540722    0.80031359825499
H          -1.79726378324268    0.74522608915294   -0.81480938356009
H          -0.59166099675325    1.87479338268935   -0.39900601205423
