    23
        -45.38497761  Gyration_radius:  2.25786697715 Dipole_moment: 2.531
 S          -1.59221135215974    0.28555358988338    0.93508014550945
O          -1.33508859365720    1.24442692620715   -0.13781108743889
O          -0.88906956785445    0.64526564507782    2.15180839613070
O          -3.13737154625164    0.39817142889167    1.26439862478721
O          -1.37110776054041   -1.08218153717465    0.51450332615032
H           0.20211425295985   -1.78813586798193    0.52103190260367
H          -3.18432851387276    1.24200582135029    1.70105223650159
O           1.16856652905320   -1.88654124995366    0.39432063663601
H           1.55590937176092   -1.22978089351130    0.99834014085212
O           1.26057763635174    1.69560152271321   -0.53538150349982
H           0.28915037701033    1.72314983216986   -0.40324365626628
H           1.61528942841199    1.39765428101588    0.31935817984184
O           1.66602042476813    0.38729196040366    1.85056298843327
H           0.69137563394218    0.48803223012582    2.01815761431173
H           2.09744024159914    0.57564295514347    2.68550769178466
O          -1.47874310274161   -0.51475604594494   -2.08770088673182
H          -1.55171980687808    0.33156988688415   -1.60195069206179
H          -1.67725689967843   -1.15644152834494   -1.38844455443897
N           1.15814685386567   -0.56185018978589   -1.87409289606172
H           0.13252405361603   -0.59783034980322   -2.14659430046544
H           1.77108520374483   -0.78127893781997   -2.65014911889356
H           1.32880156282839    0.41254503807776   -1.47778136146148
H           1.27989557368887   -1.22811450759906   -1.05097181623066
