    23
        -45.38129246  Gyration_radius:  2.28576487589 Dipole_moment: 2.180
 S           0.64841578100905   -0.11359054322555   -1.68757666772079
O           1.64128952295532   -0.48021898169326   -0.68143996989870
O          -0.59205089251376   -0.84583859179282   -1.50406960679721
O           0.47958615828452    1.32085313855383   -1.77853433058377
O           1.22250355139725   -0.58499489791826   -3.08637574427032
H           1.84226469154266    0.10305009473863   -3.30788114322475
H          -1.12225467556501    1.60364634738792   -1.26058345856278
O          -2.02836896782396    1.50272413642662   -0.90663101367587
H          -2.34497648002171    0.68944983376921   -1.30835688785331
O           1.59505537722527   -1.74514418908753    1.65484475251285
H           1.78473030930829   -1.42220962769510    0.74969469543228
H           1.90073157779073   -1.04773095068094    2.24052702392296
O           1.12515093170221    1.53247171634970    0.98583800646647
H           1.03690939925741    2.29153834266382    0.40349716666085
H           1.39072586471003    0.80436879763641    0.39016607892057
O          -1.43175723315429    0.99913142209814    1.65081959305376
H          -1.81524323133965    1.31336277424854    0.80027896391710
H          -0.49793304873541    1.29739907405692    1.61568138415354
N          -0.98499286159011   -1.47281576553675    1.01951702056687
H          -1.67595259784829   -2.18296164106589    1.23306436609961
H          -0.03906943144597   -1.71850939051304    1.40498259489879
H          -0.86967219383082   -1.34892106781327   -0.02257152424451
H          -1.26509154130941   -0.49506003091356    1.39510868023278
