    23
        -45.37922914  Gyration_radius:  2.2727460026 Dipole_moment: 2.391
 S           0.88056034411796    1.18821179414072   -1.15570270685470
O           1.80835174711671    0.14872089157712   -0.71286036771237
O           1.35136480301050    2.52244457838451   -0.92956626435681
O           0.74619279253904    0.99130725677076   -2.74174681795881
O          -0.46678591716036    0.93332934677601   -0.66142491756366
H          -0.98216238037828   -0.47066857224015   -1.33560080701481
H           1.47242394678391    1.49958649686327   -3.08971097525311
O          -1.27689118303504   -1.37271275831294   -1.60150140739722
H          -1.07775065238108   -1.44098801726081   -2.53623992040982
O           0.66186058547213   -2.06726613994046    0.16693726689343
H           1.23981647904815   -1.35433689705563   -0.18690682341849
H          -0.07987525521688   -2.10260404900074   -0.46785878015504
O           1.44452993437020    1.35891423741841    1.60524555146651
H           1.82370787099738    0.86995244341103    0.84969970850307
H           1.24834145139071    2.22336018425582    1.22865907741192
O          -2.53696689449051    0.07960876607608    0.79067182028773
H          -1.96390558054661    0.66426683989276    0.26283339793716
H          -2.76314803286120   -0.63864799869620    0.19069386742288
N          -0.31493159028240   -0.61224453078949    2.09962224335756
H           0.09772520940575   -1.31782483185064    1.39418935857954
H           0.29773261523723    0.23841955151838    2.03922341893958
H          -1.27486909101940   -0.35803395372496    1.74836302977635
H          -0.33532119212278   -0.98279461821754    3.04298105751240
