    23
        -45.35061714  Gyration_radius:  2.42074582535 Dipole_moment: 6.497
 S           1.86281803213032    0.69871142147766   -0.87075807404619
O           1.74128303285957   -0.62004759020399   -0.31226970056025
O           3.14066733950392    1.29824973031434   -0.92342004833629
O           1.23341196161807    0.69746041890191   -2.29654407251850
O           0.89991277266326    1.63303111704771   -0.07090919319463
H           0.05307245337148    1.11172918497494    0.14240199165277
H           0.36029412743665    0.24039154022893   -2.24925438073189
O          -1.26375984937293    0.43442278279371    0.57871957993428
H          -1.47193942096825    1.07500102898841    1.27398791551229
O           0.09153709289005   -2.72508250520015   -1.04145314707515
H           0.83353765607398   -2.13234210366448   -0.84421787911800
H          -0.47935834513715   -2.22530238545966   -1.63195134430068
O          -0.68408593049725    2.61018032441515    2.17787156876917
H          -0.86538011787668    3.53137235843594    2.37129164865225
H           0.12374782578988    2.58718561165128    1.65121426747976
O          -1.19954457744724   -0.29534274682283   -2.01239339374705
H          -1.39378777932611   -0.08105319905442   -1.07893752225635
H          -1.83175016919900    0.18586027362993   -2.55015137221077
N          -0.22254444494540   -1.68724852642227    1.62759128492764
H          -0.40286319918800   -2.10375058741965    2.53160817321542
H          -0.91737213437745   -0.40755822663945    1.05308127982081
H           0.75878165452948   -1.43462107381566    1.57025022076333
H          -0.36667798047372   -2.39124685822182    0.90424218743343
