    23
        -45.37126152  Gyration_radius:  2.37077742091 Dipole_moment: 7.050
 S           1.35925281997788    1.04531919691291   -0.41268497513368
O           1.42241578940120    0.26179826649933    0.83070161896187
O           1.45688851646446    2.45608605731044   -0.20358166467752
O           2.56726270032262    0.57835162623720   -1.28838997362482
O           0.14331019108603    0.65759089345222   -1.16380857499803
H          -0.43488582814627   -0.75070624731304   -1.23652440828994
H           2.44946899289465   -0.39122897746113   -1.35703313018216
O          -0.78200775731703   -1.69848853253722   -1.21638934332984
H          -1.49532907832200   -1.72692172573818   -1.85603269452929
O           1.94598928576853   -2.01318642802845   -1.63805523565701
H           0.98777472556650   -2.06916978249367   -1.47653605908289
H           2.08123393886102   -2.17544000293664   -2.57422331433483
O          -2.17632974822042    0.95667876130830    2.12612169106678
H          -1.95041403087340    1.42125458354324    2.93364660427132
H          -1.91788496882472    1.56906125454152    1.38632266293116
O          -1.23407347657827    2.46668537533735    0.18841127467056
H          -0.39999679163111    2.93208355048521    0.34379949086808
H          -0.96968953166270    1.81342653035837   -0.48453901851122
N          -0.63163969491251   -1.09619992221764    1.43814931052751
H          -0.46126019535478   -1.80035864241517    2.14686221013051
H          -0.91699974014770   -1.52333388452832    0.54138581997439
H          -1.33228997293319   -0.37606883837743    1.75868635450217
H           0.28920386460663   -0.53723311188027    1.21371136445700
