    23
        -45.35765823  Gyration_radius:  2.45832144978 Dipole_moment: 6.674
 S           0.30419981929551   -0.27159201505901   -2.50062736992138
O           0.97782833313105    0.62918426434349   -1.58828708464466
O           1.00802429380611   -0.64958606865603   -3.66421149376082
O          -0.10669326384030   -1.53397473703200   -1.72455440730709
O          -1.05844910297537    0.39597841078681   -2.89717403866656
H          -1.35945091977765    0.97155644846240   -2.18138090357641
H          -0.74329620177155   -1.30076524180342   -0.94260124747381
O           0.14013084181712   -0.70226961838918    2.25108041081906
H           0.26677489066180   -1.34243950606984    2.95221576271924
O          -1.59600182154208   -0.80310013050887    0.16969364732267
H          -1.06700905289616   -0.88356558565935    0.98889969322100
H          -1.62629546251825    0.16290236161694   -0.02118169487212
O          -0.72971054090595    1.92582149044343    2.20762420622787
H          -0.34529149998549    1.03720530032970    2.30993085263093
H          -1.45384024364375    1.98752286689632    2.83224831856697
O          -1.12412336144210    1.73742407317343   -0.46155898046086
H          -1.04287919807446    2.05729990845639    0.45983626932229
H          -0.20603533766480    1.57510243162570   -0.75070720512150
N           2.04997642210328   -1.02861970587594    0.46547233725083
H           1.79912584841628   -0.34042536813003   -0.24519999546443
H           1.96705844257896   -1.93646025910071    0.02253127209153
H           3.02512260460863   -0.88405321501037    0.69724474510900
H           0.92083452059676   -0.80314610484360    1.62070691598607
