    23
        -45.35539682  Gyration_radius:  2.31210119464 Dipole_moment: 5.289
 S          -1.87522920149156    0.99974406758660   -0.19141092637751
O          -2.09257896355128    0.16258303807344    0.95973967435672
O          -2.93616558146623    1.83509606575359   -0.61225601481888
O          -0.61201053419590    1.88377921951575    0.07924472615042
O          -1.40251014360376    0.08404916606318   -1.35019029960642
H          -1.02802495807647   -0.74695398945504   -0.86308067069090
H           0.20257862583859    1.50364282079046   -0.34653491330675
O          -0.47609306038878   -1.87654235913802   -0.07470648346808
H          -1.18383423819984   -1.93568629640099    0.57475122448212
O           1.52001899719037    0.97878306001356   -1.14079578914622
H           1.31405152739674    0.17466626548752   -1.67948833726812
H           1.79012424599126    1.65988243761824   -1.75979367838927
O           0.81210549454821   -1.17545665171300   -2.55422137407197
H           0.62202395040514   -1.84617912879475   -1.88759147276580
H          -0.04414454822083   -0.88365937371677   -2.88307352341225
O          -0.26092893477482    0.87137359612595    2.80052844867303
H          -0.16840518683329    1.80381905619825    2.59403685776937
H          -1.02596877739088    0.56904190616597    2.27711902855562
N           1.45971641061403   -0.79493706324905    1.25754270939528
H           0.96451264221227   -0.23273257192896    1.95541242824021
H           2.12673291374953   -1.38337197066667    1.73857469387812
H           0.32689480092852   -1.49285370959715    0.45133894159464
H           1.96713449938287   -0.15808757468833    0.65485475024955
