    23
        -45.35634476  Gyration_radius:  2.34882887848 Dipole_moment: 6.028
 S          -0.78821935985151    1.07328915913929    1.72840802965619
O           0.57459061212251    1.06340591544350    2.20638086840010
O          -1.79206987984314    1.63839481873662    2.54625970410504
O          -0.79528728250622    1.74683779303252    0.32471223264103
O          -1.17778797357733   -0.39749272468341    1.38302369605228
H          -0.30082962645721   -0.91533357631572    1.31049409548204
H           0.16543881529949    1.98104900081723    0.09545896805626
O           1.81766193131100   -0.39653976406072   -1.13292159520703
H           2.37614084243236   -0.81078775770711   -1.79174256184805
O          -2.33032778495523   -1.99406743235425   -0.61372375211985
H          -2.16583029358910   -1.40901551449658    0.13924583666369
H          -2.42182608075716   -2.87828383378383   -0.25499977914237
O           1.15003581442756   -1.38831706011117    1.27143029560396
H           1.41658058213958   -0.67234007342596    1.86661216102403
H           1.48014308045831   -1.14109416272230    0.37987525234031
O           1.70804450870730    2.06652312755232   -0.00179427918559
H           1.78041748252933    1.87589872338473    0.94569928940227
H           1.93573594252211    1.23924463517885   -0.47055740535284
N          -0.60755832170637   -0.13255431525565   -2.04969667773856
H          -1.17536492735016   -0.93289583709040   -1.77724947533948
H          -0.76859175827057    0.04087999999050   -3.03397580451309
H          -0.96553067966904    0.66389276338646   -1.53114461190265
H           0.88443434658314   -0.32069385465974   -1.53979448707645
