    23
        -45.36127923  Gyration_radius:  2.28183040686 Dipole_moment: 2.347
 S          -0.80534896699921    0.17716723941049    1.30646858781304
O           0.36815179921627   -0.66666875482295    1.30318866139337
O          -0.74024592139047    1.31132855165959    2.16332836698018
O          -1.07917303513831    0.63013769087819   -0.14986073236299
O          -2.03904299886944   -0.67777807653900    1.63224129309466
H          -2.17788820469077   -1.30252982119305    0.85166168062971
H          -0.77678424475968    1.65851521546404   -0.18180394356669
O          -0.17172290789054    2.91509976466103    0.04289495184389
H          -0.38355253669880    2.99263497442319    0.98274073170496
O           0.47749809085502   -2.53994837814257   -0.50831426492612
H           0.86079462588917   -3.34250084770163   -0.15030933897548
H           0.53484643761327   -1.85875825353600    0.20493020236389
O           0.95112913621172   -0.19687595436160   -2.05530842671378
H           0.14624305257975    0.15647820092471   -1.66046765872587
H           0.99304696966272   -1.12021912348861   -1.77810840670801
O          -2.15680766911474   -2.06992017086788   -0.51992628270498
H          -2.29223079350583   -1.39221782026537   -1.18762044637287
H          -1.23058743489905   -2.38377252052905   -0.62480145050243
N           2.02148949048084    1.50593420449757    0.08284694308985
H           1.73711745366421    0.81933368875290    0.77546954895253
H           0.77968236263728    2.56608600831563    0.00970107592751
H           2.97337599923467    1.78632458385867    0.28069766339286
H           2.01000929594497    1.03214958856571   -0.81964875561858
