    23
        -45.37254424  Gyration_radius:  2.262006954 Dipole_moment: 4.891
 S           0.84811903326381    1.53199624543365    0.24739772917640
O           1.49838067632761    0.25130596541610    0.53154764732447
O           1.36512730866174    2.20532885120523   -0.89802387391284
O          -0.61592541622587    1.30085675299337    0.16141332488262
O           1.06758352106445    2.43697788316684    1.51394634045553
H           0.70522102589905    1.91165508696219    2.24261357497557
H          -0.35953373842411    0.80602152223901   -1.48355758783162
O          -0.21669017023191    0.39086710197475   -2.35315622244435
H           0.33152626268240    1.02772036900859   -2.81965262618587
O           1.42662983077635   -1.67313630007158   -1.73974952519433
H           0.81397965267700   -1.01906875573470   -2.13874666489281
H           2.07935531226612   -1.13543565966244   -1.27722049932846
O          -0.65337147220411    0.67061934166450    2.70185036981393
H          -0.80769242804128    0.85291415041892    1.75212350321027
H          -1.40861043486060    1.02773433331653    3.17338905035929
O          -2.24609686064268   -0.76423324433738   -0.37753540129302
H          -2.23231768970669   -0.79282463400812   -1.33869852893624
H          -1.86585308205839    0.10548270644524   -0.14913677657016
N           0.03492547861447   -1.86469351685802    0.47719522013873
H          -0.95180480548581   -1.58407980927211    0.24540188168374
H           0.52278730118505   -2.15147778990307   -0.41173393837998
H           0.58190371947465   -0.97646619692461    0.72586563138863
H           0.08235699514558   -2.55806441334364    1.21446737166322
