    23
        -45.35118482  Gyration_radius:  2.52053142582 Dipole_moment: 4.129
 S          -0.75297027400073   -1.50443053821249   -0.24281382741847
O          -0.72550722114263   -1.24467180142819   -1.66397622711121
O          -1.64698635998529   -2.53472974647321    0.16993391614582
O           0.71552708267962   -1.87077889543651    0.21453801905989
O          -0.98294467972162   -0.22613435128736    0.52168357776787
H          -0.25375171521514    0.53070533103717    0.17048309212864
H           0.90437748587659   -2.69892867061925   -0.27018157851232
O           0.56912746038713    1.48733331459522   -0.31608646483699
H           0.09211723872548    1.72168141157031   -1.14120695104854
O          -1.00585235306014    1.32027291332684   -2.44232332259406
H          -1.95424534290882    1.45945348485814   -2.45440962921296
H          -0.87642933226510    0.35871476958407   -2.31754034127441
O           1.64339706272524    0.28391471276079    2.10244638102362
H           2.07894349723141    0.54099662824030    1.28525810140251
H           1.13326877128595   -0.49953257856487    1.87730140438628
O           0.18937825072396   -3.85500991610993   -1.42580709052769
H          -0.62052091489772   -4.01974607350577   -0.92723258115146
H          -0.05164260950173   -3.20673911752825   -2.09827303912483
N           0.28236808107218    2.90728884209047    1.87489591802900
H           0.78358215112448    3.74373577796954    2.14555455434151
H          -0.67201406411109    2.99057264336694    2.20126278703262
H           0.44576413379503    2.20146873130675    0.37981300765588
H           0.70501366119145    2.11456312845942    2.35668030384044
