    23
        -45.37366227  Gyration_radius:  2.39512658083 Dipole_moment: 4.330
 S          -1.04621250622600    1.76095662774558   -0.72911471287866
O          -2.23954862241001    1.48984509463892    0.04355098178179
O          -0.04767036601051    2.50963419124227    0.01258438481677
O          -0.48493238030501    0.57306564975855   -1.36116512436291
O          -1.50122215444514    2.68762565111615   -1.94475153558568
H          -1.95447585860698    3.40150243857168   -1.50673251196843
H           1.58625034066739    0.79939407328091   -1.45459085987132
O           2.05794062689116    1.24508107168641   -0.73939639267329
H           1.39006020385985    1.91110645345387   -0.43495325264387
O           1.16103593730963   -2.84902341487589    0.23367334707354
H           0.33223658407218   -2.54535848929082   -0.19741148671615
H           0.92593298022360   -3.61418590187773    0.76065780380056
O          -1.06706545407326   -0.20147152669737    1.65245313353249
H          -1.52987235245743    0.53990621070987    1.20050775993744
H          -1.32759762453252   -0.97839292891534    1.13706940306914
O          -1.16370183423928   -1.81764812798306   -0.63245552717641
H          -1.77761175796953   -2.15026220463008   -1.28853872219987
H          -0.91981171881286   -0.90258220893539   -0.93796437374938
N           1.54075811732037   -0.37424554819074    1.25630423308545
H           1.83986791200044    0.28166198208636    0.45875815695792
H           2.11919942752945   -0.22801665102809    2.07596880872590
H           0.51661166431621   -0.17829952726268    1.47562930752826
H           1.58982883591416   -1.36029292458407    0.91991716951841
