    23
        -45.38497745  Gyration_radius:  2.25787799881 Dipole_moment: 2.527
 S           1.03855667017975   -0.24674932163850   -1.53332272040844
O           1.76398241502646    0.29640318975692   -0.38645434666678
O           0.33276932890574    0.79210456499425   -2.25924450479588
O           2.13909163117234   -0.81069343170113   -2.52299203961695
O           0.20776970993732   -1.37643692215985   -1.17289440380404
H          -1.37171549774603   -1.16563959913251   -0.51613087964805
H           2.52259009827064   -0.01103462158010   -2.86700744969387
O          -2.10286770571404   -0.80998502709574    0.03046642362645
H          -2.20122281616411    0.10910128976342   -0.27243756566046
O          -1.60861609268013    1.74613945458527   -0.84290876742602
H          -2.08858082433525    2.38891839449483   -1.36761549677224
H          -0.88410194050652    1.40102998716913   -1.42962655462362
O           1.47488159243560   -1.83376658828491    1.12834547013379
H           1.01589268943293   -2.22061021830806    0.36708270771573
H           1.86498212420320   -1.02820908953470    0.73246639828447
O           0.24081694087241    1.80886788378729    1.19237526555700
H          -0.47658483871810    2.02622297328733    0.57315164410326
H           0.93231129702705    1.39560522952162    0.63305254158689
N          -0.57280593195002   -0.50018668958641    2.14315345500671
H          -1.32440335699523   -0.70371231485837    1.41517653761293
H          -0.90083390294119   -0.63101719074809    3.09258379549355
H           0.25361805991047   -1.12530640572392    1.91139122492189
H          -0.25552965962808    0.49895444298726    1.95138926506944
