    23
        -45.36270900  Gyration_radius:  2.27281331268 Dipole_moment: 6.458
 S           1.27182164960582   -1.40015726497600    0.11564629979020
O           1.83679332367695   -0.18224496820202    0.65519871234926
O           1.70700920608142   -2.60730560463690    0.71707208331961
O          -0.26979511638627   -1.30113987901820    0.15636938510223
O           1.54130988696594   -1.43264241917734   -1.40845692322492
H           1.13764037788751   -0.59350614360991   -1.75967779683300
H          -0.62791698837176   -0.48982885983356    0.70494952325505
O           0.28523289588140    0.71499711339218   -2.21857217364093
H           0.29356144906732    0.77305419721307   -3.17600490984106
O           0.69564762401647   -0.72461251860496    3.02679464564577
H           0.76678245554232   -1.67900017375941    3.09164238084298
H           1.33982198968065   -0.46156587340339    2.35097433313016
O           0.67783647530013    2.18442878439556    0.19253895166910
H           1.33599363655723    1.50789607678136    0.43151877752864
H           0.53570500739114    2.05176658509175   -0.75251587947930
O          -1.07174217881863    0.67771412931270    1.48102147498699
H          -0.64778025957958    0.40335736508301    2.31308873574936
H          -0.49864722135785    1.39219084820078    1.09874444713514
N          -2.18934496859881    0.23934515014767   -1.40851213299512
H          -2.30297840250361    0.75144295377487   -0.54053563853829
H          -3.02159464367521    0.37765654291680   -1.96833056368923
H          -0.66880625862688    0.53971964339949   -1.94323622278054
H          -2.12654993973968   -0.74156565447386   -1.15971748949579
