    23
        -45.38323503  Gyration_radius:  2.28346055144 Dipole_moment: 1.472
 S          -0.14805679841753   -1.86330095781852   -0.27298697595675
O           1.07469806871948   -2.09050791257083    0.46611138515190
O          -1.24093787493634   -1.36420884212367    0.54600795901682
O           0.06637285417631   -1.01738765232870   -1.44471408076381
O          -0.60066353059162   -3.28263527904631   -0.80943216935761
H           0.21101686855952   -3.77669730970847   -0.75923387953528
H          -1.37823569395941   -0.09500711502008   -1.59537564462012
O          -2.16408821226052    0.44685150484365   -1.38870173352648
H          -2.62131743776418   -0.05922862683938   -0.71104560112972
O          -0.74894240439233    2.39233418722445   -0.21858462757014
H           0.11239019099850    2.21229843027468   -0.63225736100994
H          -1.39005046085471    1.84235831439786   -0.72580754497747
O           2.10886890486419    0.17379015083896    1.38287765110089
H           2.20822587019944    0.64320154503916    0.53869796822930
H           1.89267756986541   -0.74954651821551    1.12970712803004
O           1.53589639027549    1.13012457930954   -1.14920080538572
H           2.02304955280605    1.27905691744430   -1.96088394077484
H           1.01318843976392    0.30375603352518   -1.29306744267474
N          -0.40412541746450    0.78562647861211    1.81391026614638
H           0.64927560740795    0.62088646061292    1.82356924298058
H          -0.82869673439154   -0.09926708127211    1.43229867662620
H          -0.76745318906822    1.01006908194497    2.73295871534797
H          -0.60309255353469    1.55743360087174    1.09515278466098
