    23
        -45.37436760  Gyration_radius:  2.41582256185 Dipole_moment: 3.687
 S           1.03328026892285   -1.71892080252189   -0.53918275539948
O           1.91100355308094   -0.82649828736455    0.20996407883839
O           0.06047919843279   -2.38811005195223    0.29514616899935
O           0.43404835174913   -1.03100954965562   -1.67853491403809
O           1.95615945644615   -2.86097466222876   -1.14063877902831
H           2.58154722248438   -2.39659636941136   -1.68881407928182
H           0.67942254414953    0.58005852401551   -1.41260658669491
O           0.88680205048625    1.40597063198483   -0.91259655729426
H           1.64889416803000    1.13442636649987   -0.38396812989349
O           0.44701453664720   -0.67622438008783    2.40069173746856
H           0.06506403959359   -1.55733499723370    2.31648622563564
H           1.15821831687851   -0.68119287294898    1.72292159804842
O          -0.96962517351030    3.46619105681444   -0.12496270060527
H          -1.04673453170259    4.34949977920910   -0.48671006068893
H          -0.24587230668182    3.03574773030873   -0.59916483393690
O          -2.09435203648629   -1.15862654979812   -0.55876264655572
H          -1.44341832743039   -1.79234251305034   -0.18374245082157
H          -1.74773962037729   -0.99430790207978   -1.44314754110728
N          -1.08601918648607    0.83594602109761    0.86157839047717
H          -1.62053938609854    1.64605089069338    1.16521553260926
H          -1.67518919493809    0.12587710277898    0.34165893463047
H          -0.34830867513472    1.16608482863552    0.19156164033750
H          -0.58413526802217    0.33628600628872    1.64760772828982
