    23
        -45.36760929  Gyration_radius:  2.44892691004 Dipole_moment: 5.046
 S           1.67295145940386   -1.42061454926077   -0.71534796470787
O           1.36076760210696    0.00439019249529   -0.51850040410315
O           1.07552954947544   -2.21187194280495    0.34211100303277
O           1.38330771072143   -1.86888209702599   -2.05034949006576
O           3.25779139559657   -1.53757167358618   -0.53347449124657
H           3.58831610424692   -1.65448861164365   -1.41992192324233
H          -0.95441215935781   -1.63808472558629   -1.67736662094205
O          -1.07270060735050   -0.79045458695221   -1.24020958136530
H          -0.15459180858809   -0.48971025350473   -1.08173005577785
O          -1.77838713959675    2.50591490470324    0.73413465528321
H          -2.48974105664111    3.03488684535375    0.37115940624891
H          -1.07018880713825    2.48138793840673    0.04300140051297
O           0.80959214529390   -0.42757041798973    2.17366003588636
H           0.97498274867967   -1.23210284347543    1.61368140226702
H           1.30100559327986    0.26141017330437    1.71273171519294
O          -0.03255125471461    2.17941413894183   -1.24017820749836
H           0.62378165121855    1.52015519188050   -0.94514782815575
H          -0.49147280202295    1.75733871822071   -1.97102069237904
N          -1.62936996150279   -0.10225571461296    1.29348447349148
H          -1.80786332054178    0.92481776400440    1.17964967841011
H          -0.65999892831505   -0.22460509045356    1.75362167210097
H          -2.35199024284619   -0.55464134510121    1.84175674441614
H          -1.55475789142403   -0.51686201532180    0.33425505262854
