    23
        -45.37899826  Gyration_radius:  2.30344834833 Dipole_moment: 6.084
 S          -0.62156239855692   -1.25579553601365    0.07067701074989
O          -1.72190008206392   -0.53256330353409    0.68205807290577
O          -0.38151774230474   -0.86895620604076   -1.30767412982127
O           0.60274244988296   -1.10981449861829    0.87909656443099
O          -0.96958748930692   -2.78176807816779    0.04489439620322
H          -1.16535593432609   -2.98088797705536    0.98089226995101
H           1.82919875766257   -0.62776080306690   -0.17529334393798
O           2.24451384424227   -0.22918158827584   -0.97438511574440
H           1.70852888452806   -0.60035000455339   -1.68606906117311
O          -1.28802720160129   -2.30843177692617    2.63396959506613
H          -0.36729452046955   -2.05330652273257    2.75009759388899
H          -1.71177546471589   -1.55131993083571    2.19343772805829
O          -0.02430003247944    1.35168166629441    1.57357312719901
H          -0.94584628408343    1.12355294039494    1.37276319047787
H           0.40501474085839    0.47094914602839    1.54887013160124
O          -0.97029383975840    1.50633836307658   -2.22250285056934
H          -0.89769612737782    0.58793924265292   -1.86378389332547
H          -1.12999130779738    1.40828319498965   -3.16248729823808
N           1.09872817025194    2.12620276312633   -0.67641111053896
H           0.32241649527964    2.09262009305179   -1.37962633463394
H           1.63011779806089    2.98803298705488   -0.72531183504479
H           0.65041954145082    1.98398403847728    0.28095245814254
H           1.70346774262373    1.26055180067307   -0.83773715564900
