    23
        -45.36851738  Gyration_radius:  2.55736166257 Dipole_moment: 2.405
 S          -1.38726820557595    0.36688117345319    2.07497526706953
O          -2.16779989395685    0.96470107373004    0.99371640947094
O          -1.57737244071064   -1.06922315977320    2.14958218040722
O           0.01324414894381    0.75420686018103    2.01698440445007
O          -1.95094898316044    0.97827509224958    3.42809250169167
H          -2.82706865063304    0.60847617627665    3.49455141566064
H           0.97314269659512    1.33590885283702    0.82471041440438
O           1.46060367447871    1.59181267978406    0.00266901714769
H           1.77412520666278    2.48490901336797    0.14857120631920
O           2.16284198420026   -0.74152646550891   -1.51579127878699
H           1.87101857878954   -1.39695753960287   -0.87175435861975
H           2.19065112364649    0.10126289303858   -1.04140093051543
O           0.51158922633660   -1.62408615127870    0.71352062015639
H           1.03486153263933   -1.00980720567061    1.24272970058555
H          -0.30776364945456   -1.70943798252686    1.25456206125052
O           0.14683940148191   -0.63937454425703   -3.36465319833673
H           0.27974890869847   -1.16845493822610   -4.15094557572691
H           0.97285800684684   -0.70099665304055   -2.84249887791518
N          -0.66060015374800    0.17511154053989   -0.94072053778886
H          -0.88278353841551   -0.07536382186803   -1.91134810708423
H          -1.45661335008670    0.51730999307096   -0.32721349976584
H          -0.24217241608474   -0.65041514655465   -0.44403897986569
H           0.06886680247009    0.90678827972725   -0.93429985418675
