    23
        -45.35038972  Gyration_radius:  2.59423130484 Dipole_moment: 3.353
 S          -1.28154850800522    0.86960481612243   -1.24434010626720
O          -1.08896643712354   -0.23024817667249   -2.15520492334340
O          -2.17057156235429    1.89990949749304   -1.65783374955219
O          -1.80231624478094    0.25082278524901    0.12153352236505
O           0.07401353603915    1.41854593991621   -0.82269306720682
H           0.74361372215241    0.57887648032604   -0.92502274269214
H          -2.68761618638405   -0.09399335563574   -0.11632202597090
O           1.42597065507349   -0.63351929882991   -1.07669875854155
H           0.85634560260171   -0.98224200708249   -1.77438701486297
O          -3.78437902106583   -0.37686569864108   -1.49157606918062
H          -3.10553342926827   -0.71486146411700   -2.08952841775652
H          -3.92977230293494    0.53766642510547   -1.75909344982838
O           2.09753014240323   -0.01290759083964    2.91788009583222
H           2.85750739954885    0.01476666264376    3.50036809838980
H           2.28187804134636    0.62156005761460    2.19758248973043
O           2.55643839773015    1.51285565912623    0.69143738676558
H           2.74692359628796    0.84201567806778    0.02819493041590
H           1.73702910012299    1.93364429349998    0.41147893217709
N           0.46292028878675   -1.55454190219822    1.12262374159719
H           0.31125630004056   -2.53701476184366    1.30902521709849
H           1.01500214653846   -1.16391270061634    1.88602920348174
H           1.11919049898226   -1.09859021096613   -0.19786089662484
H          -0.43491573571396   -1.08157112777551    1.12440761393623
