    23
        -45.35620410  Gyration_radius:  2.38626290321 Dipole_moment: 7.231
 S          -1.93217004657386    0.33276835903132   -1.16590533531107
O          -0.74338467684608    1.15433191356868   -1.11499760602725
O          -2.44632020455295    0.02378235852015   -2.44753274049709
O          -1.60568578336173   -0.98898768450145   -0.37638237333828
O          -3.00893628245290    0.93833732098424   -0.25852053091833
H          -2.50055614489145    1.35672338391441    0.51478834888762
H          -0.81681616568795   -1.45604602160136   -0.78163022096451
O           1.99284826055929   -0.99362481785767    0.79369571403443
H           2.87064578564241   -1.19953917151116    1.11790877134320
O          -0.41573957887956   -0.54252620056411    2.13175032971203
H          -1.00247123492797   -0.93651562591789    1.47335500104370
H           0.48531782159815   -0.69458625819294    1.80368637783860
O          -1.32859570681584    1.86973275151629    1.40691878671235
H          -0.77696526150696    1.94344895088981    0.61386673836433
H          -0.99483439643996    1.07883601088248    1.88861022594455
O           0.53594867021967   -2.23621847057950   -1.08675524256701
H           1.13717128066556   -1.85104479417653   -0.41014104816438
H           0.42666605404202   -3.16505111237564   -0.87142866903533
N           2.06938341741421    1.16814765787915   -0.69549687971704
H           1.08387603599137    1.19632985280361   -0.96188928135137
H           2.60332042172282    1.06961967046891   -1.55016512504640
H           2.29984075694760    2.06702296331245   -0.28988804884971
H           2.06745697813616   -0.13494101648913    0.26615280791075
