    23
        -45.36915697  Gyration_radius:  2.27717482259 Dipole_moment: 8.125
 S           0.32090322761090    1.27818503957980    1.65395980727359
O           0.60396706356394    0.06778921378229    2.45162903167952
O           0.31456669561034    2.49579014163229    2.38007075188741
O           1.50089734296144    1.37494127025508    0.59566844308015
O          -0.89091845642060    1.04198501229895    0.84811518955582
H          -1.67082041086320   -0.16390002689213    0.21276978794104
H           1.56899980763081    0.52871762022516    0.11034692085795
O          -2.05134744954405   -0.99999716715429   -0.17813101789774
H          -2.99501741585142   -0.95698558049620   -0.01896727395475
O           1.66806938831548   -0.85886222578840   -0.91251637008556
H           2.46058852879335   -0.81897550697741   -1.44930109936393
H           0.89691086123521   -0.61818190605096   -1.52511075263636
O          -0.40343274090770    2.33886397521163   -1.39512133945627
H           0.42755185878141    2.78885914599556   -1.22934230845517
H          -0.68785007304117    1.99776686412059   -0.52075044079619
O          -0.37285963654038   -0.17496430252135   -2.30857220252164
H          -1.11655364868695   -0.53581709262404   -1.80430124231667
H          -0.40537081457088    0.79756023925265   -2.15279419577664
N           0.16029233280832   -1.96006412880031    1.04570833719554
H          -0.78186508993345   -1.84425853696204    0.62604996448908
H           0.86228850808939   -1.86012946322674    0.29756395190172
H           0.33665124952124   -1.07653636759466    1.73687466784640
H           0.25434888142791   -2.84178623726553    1.53615139956715
