    23
        -45.37545162  Gyration_radius:  2.39574240405 Dipole_moment: 4.166
 S           1.20988020080463    1.06431917349919   -1.33889333253602
O           0.15909063780828    0.95284392579686   -2.34780728550716
O           2.05267413318145   -0.12032345806572   -1.32519644292111
O           2.13146268933983    2.27196726815941   -1.78126324954104
O           0.68542420153975    1.40385578851797   -0.03294215195389
H           1.22934450971682   -1.36929946569474   -0.80810498488347
H           2.48273682143255    1.98041541255368   -2.61705827841469
O           0.63413713774937   -2.09053521713868   -0.46243916898977
H           1.00912823568604   -2.91548591399531   -0.77461685235332
O          -1.24299713141659   -0.22387837483935    3.00695794022839
H          -0.33099493117943   -0.39680296734981    2.66340755821405
H          -1.12965503586080    0.26490688341905    3.82304828185244
O           1.12116293990018   -0.49175343558452    1.84180365775899
H           1.06759930835334   -1.26497738040357    1.26599976643019
H           1.10898418741399    0.27307959070365    1.23562966838158
O          -1.87728763279094    1.14268780219345    0.81366189827442
H          -0.99850052105727    1.51334651058436    0.61199344881883
H          -1.77271773963405    0.67291413714546    1.67541433455628
N          -1.53442424951873   -0.56145229771973   -1.09820387804091
H          -1.81545508967283    0.08136287427932   -0.26694688265108
H          -0.93968541606534    0.06041623083362   -1.72837659635418
H          -0.90673148696596   -1.31761859168325   -0.76969860606582
H          -2.34317577877211   -0.92998848521947   -1.58636885432809
