    23
        -45.36736854  Gyration_radius:  2.39691185648 Dipole_moment: 5.694
 S          -0.63031078955820   -2.30249740954134   -0.16715980986501
O          -1.41987892703586   -1.21649011857490    0.45482216739582
O          -0.94327759261409   -3.60481485346142    0.29967060716287
O          -0.94292474522923   -2.21818275251351   -1.71304092171730
O           0.80400691264063   -1.96073128275547   -0.02735545681187
H           1.32081060567427   -0.68938643679716   -0.81148999869635
H          -1.14803816529541   -1.29478925113427   -1.91872774965197
O           1.54058271671222    0.17790476489270   -1.25417183348686
H           2.18128916193365   -0.02583095100814   -1.93642848494783
O          -1.15932871936083    0.56062382130248   -1.43220647520868
H          -1.38224905288786    0.00630296227853   -0.65039463030305
H          -0.18700706117455    0.55825930545489   -1.49995625200413
O          -1.04778047977918    2.82322981872527    0.04696854118171
H          -1.24895781017822    3.62661997697742   -0.43333245201369
H          -1.26153172094509    2.07444416446604   -0.55041276215275
O           1.27798907998087    1.82387451009255    0.94520136713994
H           0.46667092698138    2.32630715104433    0.71743686027806
H           1.56731671702183    1.41226760777726    0.11255761339470
N           0.45203076143070   -0.40431407636750    2.01336201894488
H           0.80089418812239    0.57190073311156    1.70925233453682
H           0.95907953064721   -1.12147051623101    1.44458454483497
H           0.52348233424808   -0.56156193667444    3.01229353799262
H          -0.52286785135448   -0.56166521148559    1.63852721485285
