    23
        -45.34860102  Gyration_radius:  2.47884282214 Dipole_moment: 0.130
 S          -0.76647363365538   -1.67210099916649   -0.36349982566722
O          -1.81304135371196   -0.86923922274968    0.18245807259718
O           0.12855753463125   -1.02264968991791   -1.27700561355292
O          -0.00149388156784   -2.39251997899433    0.73640996417327
O          -1.41637755802805   -2.87321714827246   -1.14299219184006
H          -2.16179483645825   -3.16292102846406   -0.62145048690762
H           0.30410380702002   -1.68433821183558    1.47558572533685
O           0.93174861114772    1.06577200631847    0.31170513370245
H           0.85234150229489    0.39512241018972   -0.38283144538818
O          -1.03197402637157    0.87659848310461   -2.91173835659569
H          -0.65287769687350    0.17321482976464   -2.36140097005367
H          -0.51113854185736    0.89449685707803   -3.71659569419758
O           0.72138636974263   -0.62286539869573    2.30709219930814
H           1.67958334700191   -0.70803067130724    2.44599278838671
H           0.65577230899540    0.14201732368492    1.67279274658903
O           3.25431053741610    0.21250004417235    1.67273591412196
H           2.66193434622918    0.66906066268298    1.05627760134143
H           3.92042687237794    0.84860668184984    1.93615988909504
N          -1.45942851040000    2.05463027761954   -0.20011627304516
H          -2.03606987640895    2.82879179393762    0.10405766272405
H          -1.90357240366516    1.18997519542277    0.09784676399363
H          -1.46619890968934    2.03593771262799   -1.21625042208021
H           0.11027598177141    1.62115808094921    0.19476682795231
