    23
        -45.37219792  Gyration_radius:  2.34420246551 Dipole_moment: 3.398
 S           0.38144864255417   -1.71785272725100   -0.87027232279374
O           1.68369838142346   -1.10956590910623   -1.05871860416857
O           0.06368539742214   -2.11621426424633    0.47436307958320
O          -0.68017967318050   -0.85417683635180   -1.42034025848319
O           0.37555316537228   -3.03362759976094   -1.76042953040386
H           0.84405045128803   -2.78589785650402   -2.55250068324718
H           0.06204078967260    0.63846979239504   -1.34986026505111
O           0.50491050057242    1.48990618797723   -1.13486200285592
H           1.41035093502963    1.36275234419092   -1.42870429310515
O           2.23595471287811   -0.96737000161949    1.55208115509272
H           2.34564909589799   -0.94970598453940    0.58417159817905
H           1.56838118286977   -1.65658269994693    1.67129806337009
O           0.52630318033915    1.05052576802020    1.59323472120816
H           1.21963907584197    0.35863837368075    1.73638043225726
H           0.69119854050608    1.39059416555282    0.69522252866252
O          -1.90253052744671    2.61789351064020   -0.19945280543474
H          -1.12968350210898    2.39694086387874   -0.74212719911066
H          -1.60029541173434    3.26934506237555    0.43709135705097
N          -1.75640392199492    0.10817589018017    0.77236665841537
H          -1.45669809173879   -0.41886328067537   -0.09232353760821
H          -0.84402437599121    0.36740082467888    1.28414387493516
H          -2.16778235268548    1.01329171059520    0.46443356560156
H          -2.37526619474110   -0.45407733426808    1.34480448783707
