    23
        -45.37436761  Gyration_radius:  2.41614029714 Dipole_moment: 3.698
 S          -0.47010786621516   -1.41943314755791   -1.44202301060444
O           0.23249412833925   -0.26274984381682   -1.98877165606397
O           0.38392985011287   -2.28396137959917   -0.65890269149945
O          -1.67697451886166   -1.01198016641714   -0.73093257380743
O          -0.94723498786503   -2.28220358499629   -2.68537271467748
H          -1.49858065240103   -1.68992797898949   -3.18792182662776
H          -1.70086902846888    1.02800217040693   -0.43145638586886
O          -0.90939937015250    1.56984315075543   -0.55031729644498
H          -0.41101465335330    1.05700467212752   -1.23121457450997
O           0.18670157042262    3.26614659493069    1.50928404598606
H           0.13735571064222    4.22095229652741    1.56609999996875
H          -0.27973030570491    3.01299851546402    0.70167340489313
O           2.36902666296318   -0.61381041666225   -0.26463303118117
H           1.79708018299374   -1.40473848157137   -0.37912679082027
H           2.22523916149008   -0.12594286190965   -1.08362972855181
O          -0.87156474173045   -1.66251781255591    1.69675999043380
H          -1.37387898019975   -1.44787153219561    0.88018461887145
H          -0.30105333735516   -2.38599543894440    1.41305852507484
N           0.63579118868668    0.49351397437102    1.40338771751037
H           0.03515945863389    1.00413518472870    0.71006134221045
H           1.47416728657514    0.12706343035594    0.87010832679521
H           0.89034698154203    1.14677147240228    2.14005138550022
H           0.07311625992480   -0.33529882674608    1.74363290341385
