    23
        -45.36692923  Gyration_radius:  2.38587830969 Dipole_moment: 2.493
 S           0.69034919210395    0.54582324953714    0.39393326411306
O           0.76754380948877    1.24128712567387   -0.87755243968787
O          -0.27260184225455    1.08493639389441    1.30585655369178
O           0.41071863967964   -0.92942830264465    0.11919254968522
O           2.06641696263838    0.54466134485368    1.06128762690507
H           2.75793212357983    0.16454447362333    0.42051667913464
H          -0.66196596152981   -1.08788212336996   -0.07353287268092
O          -2.00732601493081   -1.11261091105940   -0.28222403940839
H          -2.15390499739542   -0.22950647305497   -0.69868545786182
O          -1.91231233185327    1.44907770758908   -0.98657249530718
H          -0.95965782400709    1.51474023528040   -1.17173132084598
H          -2.02396739350713    1.88215221856236   -0.13562803688533
O           1.77479709446178   -0.68661115149301   -2.41372477091967
H           1.34344028794203    0.10599385839338   -2.03768850490808
H           1.24144022456240   -1.43320631010062   -2.12800745563850
O           3.71706910947221   -0.33399339736762   -0.67756226001994
H           4.24758611102293    0.39831026702893   -1.00016226553655
H           3.09832602288786   -0.57705328466353   -1.41509802496624
N          -2.49315381177240   -0.50135084609029    2.24531705625425
H          -2.26088300310286   -1.18575896264903    2.95354351226332
H          -3.31077990917835    0.00549896973053    2.55997461930703
H          -1.71644451689645    0.15636687872748    2.18169787402209
H          -2.34262200129665   -1.01599097041393    0.65685019918831
