    23
        -45.35540842  Gyration_radius:  2.39012922061 Dipole_moment: 7.361
 S           1.85692917253534   -1.26894534252124   -0.29903448474243
O           0.78220326479197   -1.44685128168671   -1.24953125644593
O           3.07268126369064   -1.93271773960529   -0.58979195023209
O           2.06353394038145    0.26769997257762   -0.11556941685740
O           1.34691062164265   -1.68778950422728    1.10312212965046
H           1.08107218430102   -0.87344237940263    1.63594805949153
H           1.72356144063091    0.69575901862089   -0.98304168190090
O          -1.68282940766663    0.84787061339750    1.04929248973894
H          -2.47941450322878    0.96704826470191    1.56870801592216
O           0.98535720432992    1.03484944743443   -2.25419746889704
H           0.16363877962693    1.51053725587751   -1.99480868077392
H           0.72552947432322    0.11233652500961   -2.39627660985573
O           0.69376301926888    0.51032621574082    2.26796837799001
H          -0.18793537817701    0.71734558274360    1.88831390923203
H           1.33496957051128    1.03617578221934    1.77853427622833
O          -1.19785138440244    2.23492705635348   -1.24385917973195
H          -1.06756911255994    3.15293396031887   -1.00134623072093
H          -1.40535438340842    1.74892163774879   -0.42185220852900
N          -1.59363964239472   -1.62291820538730    0.23162273983295
H          -0.78137514847821   -1.61484401036884   -0.39100820930720
H          -1.69716612040913   -0.11504175750883    0.71234809157527
H          -2.37027642127440   -2.01766136601392   -0.28442481575671
H          -1.36673843403810   -2.25651972602623    0.98888410408212
