    23
        -45.38497751  Gyration_radius:  2.25785842378 Dipole_moment: 2.527
 S           1.26709228354713   -1.37299661392620   -0.02003493029813
O          -0.03488982098309   -1.75440344602899    0.52427057283867
O           2.09009356623803   -0.71548970281652    0.97719076300897
O           2.00460691220563   -2.72658036345091   -0.38376902004497
O           1.14964931853083   -0.63547453239889   -1.26041588791904
H           0.85985553977362    1.06376090625355   -1.27936850265102
H           2.20625601307196   -3.07857135736091    0.47666322452079
O           0.47909991513636    1.93651470461140   -1.04874011305853
H           0.75923482432772    2.08283744805389   -0.12873349650192
O          -1.28541910809234    0.26044275883579    1.73974604326027
H          -0.88086830731804   -0.58392647985088    1.44787210170584
H          -0.52956701538685    0.84637442139526    1.91443801226284
O           1.11559972648344    1.59692784370906    1.59995840738898
H           1.71115113659791    2.02993254852639    2.21358432757159
H           1.53558202620193    0.72248050888349    1.38278871058203
O          -1.35846058041927   -1.41335088102428   -1.72257778217436
H          -0.49781701701632   -1.18608178502315   -2.10668872855622
H          -1.09423322539672   -1.77496543099603   -0.85241801922015
N          -1.93552489646236    0.96074608025192   -0.70684957668222
H          -1.86030194946634    0.73985641434250    0.33291308452311
H          -2.78002271943729    1.46995895488202   -0.93839072801275
H          -1.04866572822432    1.50154112536391   -0.94663706134056
H          -1.87245092387462    0.03046687781079   -1.21480140118208
