    23
        -45.37074014  Gyration_radius:  2.26665282953 Dipole_moment: 5.360
 S          -0.36830156160657   -1.86972752592649    0.43874935183511
O          -0.00799196407719   -2.42876781138405    1.70714492880201
O          -0.91070035645604   -2.75521717092201   -0.55866163905466
O          -1.62206818101387   -0.85602337247833    0.80779074207599
O           0.63390673059032   -0.96075859384939   -0.10529260222082
H           1.10170889760278   -0.25414789492068    1.28776547300134
H          -2.10229262806644   -1.39902043184084    1.42586252282775
O           1.31532021334428    0.30234945678475    2.07079859630575
H           1.22702113230052   -0.29449867656213    2.81669698967416
O           2.53440878100064    0.75601418189895   -0.80874006604257
H           2.73041901479525    1.03310648917309    0.09187495309523
H           2.12760340832419   -0.12164210399320   -0.71263843210747
O          -0.77130489759099    1.74057325068940    1.14877219623078
H          -1.30689885677962    0.93234171241795    1.11746397885207
H           0.03687909278794    1.46153473869315    1.62822703244541
O          -1.35865674383322   -0.67798866951846   -2.09493024242303
H          -1.07823330047039   -1.48125518776723   -1.59720182740806
H          -2.30508816401652   -0.61304998146336   -1.95028449306123
N           0.02093153433880    1.52070320656854   -1.36458980701980
H          -0.16057675007328    2.27585637990960   -2.01688877788195
H           1.05019662613733    1.31668366113134   -1.27889228126563
H          -0.32716489758574    1.74154207701227   -0.38264952472324
H          -0.45911713960722    0.63139227631333   -1.67037706188200
