    23
        -45.35068890  Gyration_radius:  2.3633995769 Dipole_moment: 5.381
 S           0.99390375854726    1.93042713295814    0.69132383328731
O           1.76956636562230    1.04944439654944    1.49712370180236
O          -0.16470442378772    2.53648419773444    1.26518212195703
O           1.92898683600620    3.10981050537336    0.20857690688598
O           0.61656833291554    1.25622323495758   -0.63167608756092
H           1.02050745675275    0.28067229313022   -0.73940403125667
H           1.35709594911661    3.86920021325084    0.12669192148400
O           1.44978961369697   -1.05486805637171   -1.00753433798933
H           1.83411304216922   -1.05866529728844   -1.88634447348676
O           0.54124765334648   -1.33597090376861    1.78463890348043
H           1.06275083036121   -0.52820953082286    1.91989596352478
H           0.99806299870575   -1.80110505455578    1.07912454606316
O          -1.69780941553972    0.22917638442742    1.31980637071742
H          -1.31216427217780    1.10140438070743    1.47601573260682
H          -1.02271755582945   -0.42129804550413    1.57972502940959
O          -2.05046940550639    0.29629582044641   -1.34636462822995
H          -1.31002654298822    0.88998366710598   -1.49823382171663
H          -2.15375926714388    0.28729715202895   -0.37102682979249
N          -0.83469713861964   -2.20654965988912   -1.11109152727788
H          -1.03835585197319   -2.95155056632483   -1.76414985052022
H          -1.42437844542705   -1.39493646413796   -1.33927212645638
H          -1.09901116102352   -2.51247324025433   -0.18242349915785
H           0.53550065255250   -1.57079255943899   -1.07058380781853
