    23
        -45.36606630  Gyration_radius:  2.47361801908 Dipole_moment: 5.052
 S           2.08753476907850    0.68352414873401   -0.44813167100973
O           2.11417559191100   -0.10752449258911    0.76831132898753
O           3.31044028747261    1.30354252580636   -0.84117411066943
O           1.75833077326945   -0.38940668231026   -1.62594922070138
O           0.91978735755139    1.57535050924584   -0.45650520738695
H           0.98251583280300   -1.04231752247432    1.26821288315490
H           2.37719351048252   -0.07293984625088   -2.27444777852936
O           0.18912034073432   -1.57825195535222    1.56776742683401
H           0.43813664253494   -1.95978931820302    2.41040895206372
O          -2.54117903722464   -0.94676723135196   -1.35247979311186
H          -3.28097227625547   -1.55301043759630   -1.30394604271759
H          -1.72620595439472   -1.50395865639669   -1.40767129932668
O          -0.55008439821392    2.97387619065761    1.42283485760341
H          -0.29554980325374    3.86169786224266    1.67557912220516
H           0.10697789776367    2.67666149634796    0.77059389914024
O          -0.25734749585924   -2.27578498535956   -1.09202407638076
H          -0.12299755453372   -2.28419506455976   -0.13126111100135
H           0.46018657158114   -1.72906815169054   -1.44038729243374
N          -1.22512746784858    0.46932785106457    0.50649674738042
H          -0.88084236017188   -0.29514457369601    1.11660248085816
H          -1.59692899487580    1.24782610027942    1.05239193248534
H          -0.36692885911591    0.86232656366852    0.00320526163200
H          -1.90023536341691    0.08402565977669   -0.18842728906197
