    23
        -45.35597972  Gyration_radius:  2.330316784 Dipole_moment: 5.846
 S           0.44514564734878   -1.98046946460846    0.96488912764809
O           1.52414801684615   -1.33278239545128    0.25835122544500
O           0.62310130690131   -3.33503952405243    1.32485744307580
O           0.08014924311419   -1.09649866479556    2.19418167018409
O          -0.84584392960303   -1.85314514754900    0.09932493479503
H          -1.23390503206111   -0.94622518360008    0.27785579201174
H           0.72117108667523   -0.30977414138243    2.19975026343529
O           0.16058339783971    2.15922537807323    0.07379791239376
H           0.01711457299473    3.04835607518382   -0.25201521808860
O           1.72757831155943    0.80465719139388    1.83353508647134
H           2.13617518945683    0.21080871608856    1.18392148066449
H           1.23334827989772    1.46417773753791    1.31015422203923
O          -1.84611804441581   -0.47341371633614   -2.22582477478659
H          -2.31745331226964    0.01458301702971   -1.54450431716798
H          -1.67522721276225   -1.34408597720870   -1.85305844097882
O          -1.80954231528449    0.48397692153530    0.65946375296712
H          -1.86380033851669    0.42763649138322    1.61689135095975
H          -1.12334269669329    1.16775556316236    0.45788151459125
N           0.85256227045351    0.54604139145336   -1.80861820873848
H           0.47978745149022    1.59087487932918   -0.72672225021562
H           1.22578188718238   -0.23030344176964   -1.26340027898315
H          -0.01917033666701    0.22698898192345   -2.23110300826350
H           1.50775655650170    0.75665531266261   -2.54960928944993
