    23
        -45.38323206  Gyration_radius:  2.28289685683 Dipole_moment: 1.378
 S          -0.22685521711805   -1.81118107129172    0.48556039060641
O          -1.31119613402106   -1.45710301120788    1.37492425302993
O          -0.53035173181575   -1.60249958365370   -0.92040255258040
O           1.02527686312491   -1.15859759692997    0.86363446642322
O          -0.00185567697198   -3.36785750423392    0.66553029881353
H          -0.32323155062096   -3.51187487385030    1.54944644852085
H           0.98124921135185    0.41910411107919    1.27961644900863
O           0.92979480071302    1.38935797232125    1.46128342842868
H           1.57847905479056    1.56493558738257    2.14447546780914
O           2.00866699373048   -0.59482309756924   -1.55249229674878
H           1.82592170702105   -0.84752509031865   -0.62688289051677
H           1.37497653940065   -1.10874638291416   -2.06110441091322
O          -1.82295467915994    1.14440186564749    1.33088983714511
H          -1.78508433072279    0.17606574959609    1.48744938356183
H          -0.94567255900171    1.46939669045519    1.59074935887218
O           1.07136616212456    1.89357601160807   -1.25908884083544
H           1.56598867319525    1.07441874137945   -1.49383405738420
H           1.15696922238190    1.96507581072106   -0.29312799813444
N          -1.33919175443997    0.88370202561975   -1.23255418085654
H          -1.69137652487203    1.10916393161732   -0.25156085255212
H          -0.40848473845287    1.40081260409644   -1.36774202264865
H          -1.11437848821927   -0.14483472231353   -1.22624112842638
H          -2.01805583242756    1.11503184276872   -1.94852855062183
