    23
        -45.35720818  Gyration_radius:  2.45624294243 Dipole_moment: 7.914
 S          -0.34918452674840    1.32054812422494    1.70918991016869
O           0.84818215527453    0.92217029028769    2.46479546872639
O          -1.31543444967320    2.04204271138190    2.46575799448960
O           0.20347053149023    2.36451492870294    0.59987615476248
O          -0.83726606387524    0.20364063424170    0.91578146537399
H           0.18153944107280   -0.30887068519363   -0.24797972902125
H           0.02396183001185    3.18443256864124    1.04744703571222
O           0.86945995616593   -0.75541104210798   -0.80315286953122
H           0.37255302484910   -1.48391132208374   -1.24074135749303
O          -0.95974618108089   -2.40095926614221   -1.80465595726182
H          -1.57416139950253   -1.62383851811610   -1.76724657792272
H          -1.41780846673267   -3.11461691848577   -1.35977729959218
O          -0.30786100739334    1.53480957387165   -2.10411577316171
H           0.33583837703052    0.81651463285439   -2.12718296696975
H          -0.16559540279897    1.97924503276249   -1.25913047491804
O          -2.34765294929081   -0.17552154332223   -1.36954021051871
H          -2.09710650123080   -0.05558919940000   -0.44061453228430
H          -1.84014430297825    0.50549046540936   -1.84755636847557
N           2.10515088385045   -1.02007663738275    1.43888530116119
H           1.70455513213243   -1.04513240236294    0.43226909416345
H           3.10361287732281   -0.84003682569759    1.43818667092941
H           1.56677070475138   -0.17022565456384    1.92277517525679
H           1.89686631732351   -1.87921893743414    1.93672984634314
