    23
        -45.36932944  Gyration_radius:  2.58956913682 Dipole_moment: 5.559
 S          -1.72416385482326   -1.57947680672276   -0.28054936977764
O          -2.28322972002199   -0.96286809800704    0.90583739885586
O          -1.64044856149525   -0.65793054807031   -1.40621387549456
O          -0.45266619634025   -2.25110803173537   -0.04612613714338
O          -2.76617085309354   -2.71273320069576   -0.69097201419900
H          -3.50902934134130   -2.50331419506490   -0.13351135146232
H           0.24310318213866   -1.47679974002471    1.53351661848251
O           0.06693121069250   -0.65713201411542    2.02386713260527
H          -0.90075827735780   -0.57245634183062    1.89753879026001
O           3.33422649358988    2.25576546677825    1.04253510861637
H           4.16524115676962    1.86704859021758    0.76105730086290
H           3.36515301979771    2.34506954369035    1.99777377707118
O          -1.38607324351995    1.87271184112128   -0.79048217968647
H          -1.60057314348261    0.92418511670159   -0.96800098037298
H          -1.67624989949486    2.35698063041318   -1.56467249088555
O           1.06063119565487   -0.90133945017848   -1.70374818341358
H           0.66799504622026   -1.57934848071683   -1.10855334657928
H           0.30038011918499   -0.64990406017310   -2.24286250193529
N           0.96731664975598    1.00037722418590    0.15751038511951
H           1.16716964554164    0.30828523090276   -0.61698170080666
H           0.15327592187012    1.57147162465720   -0.14900403240607
H           0.65986701389383    0.42977345450870    0.99760000657761
H           1.78807244583854    1.57274223416121    0.38444164571462
