    23
        -45.35226751  Gyration_radius:  2.4960068237 Dipole_moment: 1.980
 S           1.50280100479787    1.77825209365617    0.32479042570549
O           1.82065946963884    0.53556147800615   -0.30892859715117
O           0.33438917132504    2.45381700588902   -0.14643743939891
O           1.47786437125776    1.62500530508128    1.83957675373452
O           2.72200845593832    2.75054847223423    0.12844483958062
H           3.49990242411915    2.20843326849712    0.23650358523606
H           0.83532360180541    0.82991909042225    2.11870074238357
O          -1.79091046497769   -0.74216130360172    0.71481209431531
H          -1.78145478331484   -0.10596910799370   -0.02049260972555
O           0.37113939482106   -0.84620730939644   -2.24628421052971
H          -0.39258235433120   -0.25640416781957   -2.20216302061160
H           1.01757127066458   -0.45804792448224   -1.63910869223282
O          -0.06924587684259   -0.19043207287713    2.49946779935709
H          -0.58713699853284    0.11303881482136    3.24870928174817
H          -0.74791825279066   -0.41670787080121    1.76192252916581
O          -1.55617669776657    1.05893516896531   -1.37917233441619
H          -0.85994365540133    1.61500892798550   -0.97342506960296
H          -2.24787246108329    1.65614776152483   -1.66908165603480
N          -0.68200633739233   -2.85009175781516   -0.48963861656683
H          -1.45659365512794   -1.59315220426745    0.31692882211149
H          -1.22551732558003   -3.58211597567296   -0.92828137568918
H          -0.24284610973373   -2.29637843127254   -1.23064661007053
H           0.05854580850365   -3.28699926107430    0.04380335868939
