    23
        -45.35387516  Gyration_radius:  2.34526556506 Dipole_moment: 5.299
 S          -0.00258396868474   -0.72677048940590   -1.96521501307412
O          -0.56352662159842   -1.73509576227794   -1.10342437026534
O          -0.84060460064047    0.32684163476454   -2.40245167676880
O           1.26419522986915   -0.16529511741814   -1.31428677134963
O           0.54550862938684   -1.48540112577643   -3.23494566827001
H           0.63681602285952   -2.40605988352145   -2.99947835667470
H           1.50064442263654   -0.79322619625131   -0.51087844325277
O           0.48472595121544   -0.06503935558477    2.31359642693816
H           0.74553174612143    0.14524328742090    3.21069672406124
O           1.52239361288183   -1.74421007959002    0.59692473909277
H           0.72914477501646   -2.22918717327466    0.32896512800992
H           1.23215675532982   -1.17290379811614    1.35645912515034
O          -1.88490947522194    1.86468891443445   -0.28983613325527
H          -2.16281660948275    1.08930863539415    0.23252605410188
H          -1.69077931975420    1.51976615979271   -1.17054071685604
O          -1.97837171244642   -0.55678363304228    0.99986794057817
H          -1.64829842909477   -1.07900968730040    0.25670346180695
H          -1.23288028358107   -0.44400408809777    1.60769912305514
N           0.70934675387386    2.02740889788777    0.78326771838293
H          -0.25193305023264    2.13688943497495    0.43323398734630
H           0.58558933218099    0.79064636498448    1.76509230916756
H           1.28032938261144    1.77261575294153   -0.01418698698862
H           1.02032145677056    2.92957731707583    1.12021138904336
