    23
        -45.35824011  Gyration_radius:  2.45270177125 Dipole_moment: 10.116
 S           1.50810807392434   -0.29298349361414   -2.05118649117109
O           1.53123164345319    1.18057109830821   -1.93565628027249
O           1.92396445987151   -0.80349757356076   -3.30945662411899
O           2.49615967511525   -0.83064256426303   -0.95733550277971
O           0.16157062443549   -0.77629124020876   -1.63579808472879
H          -0.02214709141189   -1.64350105584819   -0.34428948729217
H           2.24419940423909   -0.40986237888373   -0.10722591841635
O          -0.13546891128188   -2.10544646302356    0.53582378252621
H           0.13971033760013   -3.01093259717767    0.38735228610122
O          -0.92150014213391    1.60511354968971    1.57040299179511
H          -1.41417221272540    0.75806730821126    1.69884127138122
H          -1.18006583895496    2.19298823804405    2.28086175028485
O           1.44039148061076    0.00654530627362    1.34532835791549
H           0.91583224046850   -0.81058259536937    1.31051363178491
H           0.80364161751819    0.73271495953828    1.38838168412661
O          -2.09285825457017   -0.76625096230984    1.80467733675741
H          -2.19030937863874   -1.19906567799586    2.65451477594880
H          -1.48158306269324   -1.32624533135672    1.28271833386699
N          -0.79850324425174    1.54257113192022   -1.17069054783907
H           0.26849188337645    1.62530005486708   -1.49657860147360
H          -0.90782351484269    1.75617103797653   -0.16776415230560
H          -1.44130011913794    2.06760332879921   -1.75068063415579
H          -0.84756968998064    0.50765590999479   -1.33275386793489
