    23
        -45.35477514  Gyration_radius:  2.40789539891 Dipole_moment: 6.264
 S           0.91476534090908    1.35635487864253    1.56273822046111
O          -0.46653254591562    0.96486080444011    1.56307438249195
O           1.42331853962334    2.04889038101074    2.68669629417409
O           1.76470581897764    0.05156748617324    1.31778451220595
O           1.21824618007141    2.17692625158397    0.28613758314752
H           0.85256396350297    1.67924081106831   -0.50954506515607
H           1.14255313272210   -0.71324082270574    1.11251600848655
O          -1.57592935212102   -1.01006533243925   -1.13686990175047
H          -2.14331200137100   -1.48769053255420   -1.74325522259116
O           2.69241356409645   -0.81980886819808   -1.15282345830427
H           2.67397821955037   -0.48174595384142   -0.24230980108566
H           3.53088314388305   -0.55299307455337   -1.53319957339312
O           0.46963841320341    0.71662732337399   -1.68872732967954
H          -0.32157450394010    0.17003303911442   -1.52524777710942
H           1.22698395602353    0.10465789667801   -1.70776764047417
O           0.43049836544159   -1.95600587046532    0.42006210147477
H          -0.36417287588341   -1.64960504892675   -0.06244924158571
H           1.07643084895536   -2.20167714550314   -0.25047300904341
N          -3.03136402545188    0.36230532694048    0.56330420750400
H          -2.19367616734231    0.66887868769309    1.06039867157063
H          -3.61810017082559   -0.12195217914276    1.23113100573533
H          -3.52405590860483    1.19274688506448    0.25923547645956
H          -2.17826194553474   -0.49830493342592   -0.51041044353771
