    23
        -45.37222804  Gyration_radius:  2.32579958483 Dipole_moment: 3.862
 S          -0.72632342937033   -0.46101961680663   -1.97344008861985
O           0.22448430805871   -1.53782607794163   -1.76407475345114
O          -1.46703795407692   -0.50321479537423   -3.18913862332333
O          -1.84874698131715   -0.66530672097273   -0.80552629292290
O          -0.12676089252037    0.83270069579785   -1.63473290586367
H           1.14161199046935   -1.79469661116116   -0.52316769126512
H          -2.49561118893666   -1.11109433712982   -1.34093468360931
O           1.72149981402854   -1.86658313746095    0.28783939090770
H           2.25490847239308   -2.65221265874069    0.16220187035893
O          -0.58136182711052   -1.10057682259835    1.69504189496633
H           0.23346872346375   -1.54091889802144    1.41267830188661
H          -1.11845932113989   -1.00857653417775    0.89693323732349
O          -1.62596285836152    2.09610240541950    0.19759794877307
H          -1.12116976288996    1.74204049933742   -0.56100302355674
H          -2.41290050466589    1.55112172751120    0.26024755888405
O           0.13627540655592    1.45170656244235    2.11815261573032
H          -0.55512170529968    1.88480048990860    1.57131828599888
H          -0.18819894748810    0.53383415378217    2.24299367280387
N           1.74614733039535    0.83835087571902    0.18729807947782
H           1.18326846294949    1.17322337998704    1.05774707558950
H           1.06145782396797    0.86587149047114   -0.62495763001788
H           2.55166180791127    1.42541707641925    0.00406895428564
H           2.01287122299634   -0.15314314641344    0.32285679563456
