    23
        -45.37758201  Gyration_radius:  2.36479613738 Dipole_moment: 1.027
 S           0.47412710591967    1.63570537095690   -0.60956709939551
O           1.06865223613171    0.44597712277069   -1.21625259841659
O          -0.92326077693406    1.78082389300781   -0.92800614134062
O           0.75092753105980    1.67671426205964    0.82355770204288
O           1.21659842685998    2.88583589805755   -1.23947012211382
H           2.10733654616745    2.84730908622124   -0.90118050140696
H          -0.70241862068959    1.09604659559227    1.48393993708581
O          -1.55380967708716    0.61244331352898    1.53447595613446
H          -2.16010845057608    1.13821100007068    1.00400453491706
O          -2.33255031330821   -0.26364245563069   -1.98879664371568
H          -1.86133301150210    0.52875465919051   -1.66218598212664
H          -2.69907124282365   -0.01852239090232   -2.83880488368678
O           0.96107807558614   -2.73340551181913    1.38070436070379
H           1.59827066660183   -1.98303308893765    1.31132153976456
H           0.78244755410253   -2.84571649412716    2.31549229466888
O           2.35643198893063   -0.48012780369088    0.99441166448479
H           1.83699242349392    0.31001453212119    1.22946761643210
H           2.36451400592237   -0.45219003234541    0.02865051894532
N          -0.66479110053533   -1.26792384898278   -0.14769009432391
H          -1.37728448256312   -1.53637541467196   -0.83132732001764
H           0.05468509092216   -0.69251300777883   -0.65451536271460
H          -1.11003605219512   -0.62825349013522    0.56589529467148
H          -0.18739795348532   -2.05613218455845    0.34587532942980
