    23
        -45.37882876  Gyration_radius:  2.32737221439 Dipole_moment: 3.292
 S          -1.06540193534036   -0.96653641540371   -1.24338923095723
O           0.11609105571662   -1.81524930306108   -1.34525782423421
O          -1.73322824542690   -1.11681367879247    0.03857871642669
O          -0.78716130328762    0.41661388148114   -1.58950419447570
O          -2.08525092342723   -1.47696831009519   -2.34650781707243
H          -2.30563175857824   -2.36282269919765   -2.07456460320879
H          -1.62851887641438    1.41311201881407   -0.40871997313313
O          -2.00250153768681    1.50846161392661    0.48666186650223
H          -2.21326094780010    0.58783854236404    0.70478922539681
O           1.82079006678776    0.25965768843208   -1.56296444147910
H           0.90557224968162    0.57729749619730   -1.71862826767218
H           1.71610572277175   -0.69284500315045   -1.70475358440003
O           0.13006942939239    2.31163534536962    1.77187728257840
H           0.26035501978723    3.20912221593057    1.46182704767344
H          -0.73549958861646    2.01538626150860    1.37306729212665
O           0.50127758998549   -1.90482943371955    1.24196247899739
H           0.56336407484029   -2.11607152536482    0.28647939199099
H          -0.43998211375064   -1.68141249704615    1.31902224500402
N           1.81695534117460    0.37657454597147    1.07643571934016
H           2.71499182558979    0.41822511254778    1.54586652217908
H           1.32394175325157   -0.54528118280115    1.28416284917662
H           1.19525347348011    1.17244220051427    1.38618046413335
H           1.93166959786971    0.41246312559481    0.01737881511624
