    23
        -45.37886225  Gyration_radius:  2.27355237734 Dipole_moment: 5.394
 S           1.45628239908226   -1.08047057312777    0.35160094836482
O           1.89738219499670    0.18242307145765   -0.20782400443150
O           1.21120608023509   -0.98479123915881    1.78595611443055
O           0.32767558701896   -1.65790611866692   -0.35910625390020
O           2.64633316736231   -2.10529210690025    0.16485950391965
H           3.36464145063494   -1.68925030310604    0.63101276747258
H          -1.21579211823159   -1.21835701620352   -0.07748703399429
O          -2.11478581200457   -0.86306148239544    0.13241641204224
H          -2.72411141620238   -1.59167233356707    0.00514264486575
O           0.21220595343377    2.22224955341146    0.21098107141108
H          -0.41872584421225    2.07188286336177   -0.54075781236806
H           0.97052914778481    1.63283322675534    0.02102191752255
O           0.58085962718383   -0.21271414504410   -2.61259587783006
H           0.44553544066803   -0.91688414853416   -1.95572296713275
H           1.34517071355630    0.26752503063645   -2.27656424456067
O          -1.43535093847295    1.29438610089297   -1.62650130628964
H          -0.78101565165434    0.81540138287174   -2.17879704359833
H          -1.90465751352888    0.60794363908250   -1.13436008653465
N          -0.79826123580272    0.65175951941468    1.96788939656633
H          -0.42584772464692    1.44616935955478    1.30592463282099
H          -1.09739016752216    0.99912923769794    2.87193589536507
H          -1.55695588775858    0.15652640672124    1.47184489804137
H           0.01507253808141   -0.02782991514190    2.04913042783514
