    23
        -45.37083201  Gyration_radius:  2.29034860602 Dipole_moment: 5.427
 S          -0.80935497348803   -0.99200760869408    0.90864483738958
O          -0.53207686604410   -2.37744093387381    0.65343642544204
O          -1.59720112391436   -0.69452022958485    2.07950729638077
O           0.63200267542188   -0.31049971829714    1.21766122359841
O          -1.27702901489799   -0.27533838923957   -0.27900743404817
H          -1.22564334831399   -1.05599767747886   -1.83420256775552
H           0.93169719100903   -0.77359981311810    1.99427850529438
O          -0.99609677150476   -1.55153297202061   -2.64226942124672
H          -1.37700504033051   -2.42449970291067   -2.52862998245648
O          -1.01187067498493    1.87579014898260    2.23983965254229
H          -1.79403040259153    2.31748959549609    2.57546595319964
H          -1.23356713401677    0.91559558263614    2.23360887229540
O           1.33362090719292   -1.65293700794456   -1.22118674991545
H           0.78826966554367   -2.00867331475189   -0.49974134999619
H           0.72497624202052   -1.61415401686548   -1.98156282108417
O           2.35707231172214    0.75174252313931   -0.75583094539391
H           2.87236139075746    0.60353902637866    0.03902927204795
H           2.00243254733403   -0.14550977443440   -0.99776872452675
N           0.05012107259718    1.92590019288931   -0.25054514814088
H          -0.56727397537435    1.07562516457625   -0.41804551316671
H          -0.13558160326715    2.15150642179221    0.74608460880178
H           1.04155536503080    1.56414226721939   -0.40791669187627
H          -0.17737843005450    2.69538026605167   -0.87084929733851
