    23
        -45.36448462  Gyration_radius:  2.31683158581 Dipole_moment: 5.999
 S           1.80152677416180    1.13817605832525   -0.49916329694960
O           0.91956243178860    2.26595893940719   -0.67965194194411
O           3.18749728202438    1.32865161829930   -0.70106405528458
O           1.58285951978869    0.56711199661246    0.93147748701535
O           1.32033364114085   -0.01830372856220   -1.41758708322293
H           0.31194865507093   -0.02442836893062   -1.53850325662662
H           0.62839076731523    0.69268056014950    1.26027402257731
O          -1.38209028846498   -1.73753505600782    0.61625220754987
H          -1.89917398348056   -2.50171028875861    0.87276383356922
O          -1.22874093205280   -0.12959028799772   -1.58153199909547
H          -1.57482176198779    0.73226361965224   -1.29086408415813
H          -1.43916094427364   -0.76634765626839   -0.87383263585327
O          -1.64983424219765    2.28914819869020   -0.39571125098599
H          -2.03793177158543    3.14773024412748   -0.56897479778267
H          -0.67308006206931    2.39131689017233   -0.53310565404494
O          -0.85308954913876    0.71686365424811    1.68275501482619
H          -1.30046247088471    1.34987855361447    1.09397804058815
H          -1.17526228597718   -0.16922683110409    1.43429827831331
N           1.19628216168684   -2.32530826989009    0.44312794809190
H          -0.42205181293042   -2.03074229415877    0.57341063788215
H           1.43369777149309   -2.15122597179714   -0.52792011677741
H           1.62049984771798   -1.57091172073052    0.97508569334173
H           1.63310126284111   -3.19444984910684    0.72448701894400
