    23
        -45.35094048  Gyration_radius:  2.37638327602 Dipole_moment: 8.145
 S           2.04325571644226   -0.76622321418265   -0.82846650325976
O           1.33435010321938   -0.84693926226523    0.42219109586686
O           2.90345608644845   -1.83835500268623   -1.16049520459098
O           0.97012844838484   -0.54142957267955   -1.95469283193429
O           2.82297786352084    0.56756796804485   -0.88757442005911
H           2.13247784528617    1.27769412264557   -0.82277789426327
H           0.06450163345961   -0.77701220650513   -1.62461933475821
O          -1.49245908142050    1.39771041927334    0.18561797489071
H          -2.20626620634672    1.98787588578040    0.43116210690623
O          -1.51952845622260   -0.87547324691325   -1.21460213322156
H          -2.07128859725897   -0.76074635482997   -1.99086076318229
H          -1.59376123226680   -0.05299268419761   -0.67706790382283
O           0.80851440328695    2.21460436447135   -0.98915892118299
H           0.62155903489774    2.10816361994964   -1.92484883353462
H          -0.00320282011925    1.94166153107217   -0.51099609089390
O          -0.89539421342252   -2.34761252097532    1.21539103610235
H          -1.36246499423073   -2.19482859239167    0.38876564552749
H           0.00597895502962   -2.03904832474893    1.04454690496469
N          -0.50212058547676    0.31342562331033    2.30037273108918
H           0.41390438666352    0.09066780335402    1.91660620275638
H          -0.37956691382243    0.71925993461234    3.21897122844926
H          -1.12100645667224    1.00553014681759    1.06529309049092
H          -0.97404491931215   -0.58350043694730    2.39724281764276
