    23
        -45.37342553  Gyration_radius:  2.30524983395 Dipole_moment: 6.067
 S           1.06155274757163    1.85154070916860   -0.35182428146098
O          -0.22809619350754    1.68296091831551    0.32398614104800
O           1.80248529358117    3.00331324946053    0.04968935805595
O           1.94790364748635    0.59850236276366    0.20742129352464
O           0.93843208633613    1.61045771088004   -1.77451739912321
H           0.27234056149833    0.27056056284766   -2.20025323689826
H           2.63763870516244    1.11714446815443    0.60588216897810
O          -0.16102671703324   -0.59860316431135   -2.44920525794576
H          -0.06397985722806   -0.67002619940329   -3.39973564457834
O           1.02558507564633   -1.93389054592970   -0.41935111574538
H           1.56983936285541   -1.18240984850329   -0.13955309162487
H           0.62690156234962   -1.63856603799563   -1.26286898710789
O          -0.16600552791183    0.51927383422505    2.63255842998091
H          -0.68761690124428    1.06620679648215    3.22219741051143
H          -0.09913834573574    1.03075333533578    1.78430049392386
O          -2.09170059031289    0.08322581350578   -0.63898439791964
H          -1.52914568069930    0.82921621936795   -0.32875632423228
H          -1.65290521439944   -0.21397153648949   -1.45455518152021
N          -1.05670676997421   -1.51483000889102    1.14183455671666
H          -0.73373049330643   -0.84463023319243    1.88125408701478
H          -0.20172094515143   -1.83578635548219    0.59599541843838
H          -1.57470783178465   -2.29295936879200    1.53230503938382
H          -1.63619797420640   -0.93748267151123    0.44218054058352
