    23
        -45.37545161  Gyration_radius:  2.3956106046 Dipole_moment: 4.168
 S           1.17468906900800    1.73415100637247    0.03849269720558
O           0.11994081434328    2.40886491595972    0.79152168316452
O           0.91742098223000    1.79059232001079   -1.39134856720203
O           2.50360469491575    2.55417142230449    0.29340974864354
O           1.42123728745471    0.39105531336014    0.51905204370230
H          -0.35582222896586    0.92147602637518   -1.74962731638626
H           2.30302176249558    3.40976762870084   -0.07374009069618
O          -1.15721001013539    0.34240316350286   -1.87786547107640
H          -1.56676654810800    0.63445212612762   -2.69374147006183
O          -0.15428419184626   -3.23043684980551    0.41394527850446
H           0.23800096068901   -2.68362085041521   -0.31195921157266
H           0.48460282168174   -3.91955184818633    0.60024387570941
O          -0.23042145701865   -1.12741654234694    2.04246170788453
H           0.55569581863340   -0.65607779976923    1.71058663406984
H          -0.24997815765256   -1.98332190154329    1.55126900084350
O           0.91234746350783   -1.52826526681172   -1.31299498115252
H           0.18109649314951   -1.09009796918856   -1.76644870566861
H           1.26822600425145   -0.85444840603115   -0.70319612835724
N          -1.71238104443000    0.57462481567354    0.78364243349634
H          -1.05855306086835    1.41300959537939    0.86903409000609
H          -1.73024992575598    0.32885749161787   -0.22279505162273
H          -1.22397060249611   -0.21226129720403    1.35389252191091
H          -2.64024696511067    0.78207289590504    1.13616527862792
