    23
        -45.35527122  Gyration_radius:  2.3816080167 Dipole_moment: 6.353
 S           1.34818092087655    0.21201779077520    0.57777692520484
O           1.27754980828628   -1.08804819295190   -0.05426806850120
O           1.55034021341652    1.31956565911354   -0.29057164432636
O           0.08306485394405    0.41051283838358    1.42501544981893
O           2.46893548083925    0.19251617452675    1.64502606888280
H           2.39935747071375   -0.69086113395841    2.07884079656251
H          -0.75603034042982   -0.06896634984392    0.99487991671587
O          -1.87228975133315   -0.69244719843430    0.34705959970090
H          -1.88801199936127   -1.60969949861874    0.62615568150512
O           2.02610807173672   -2.33990117144157    2.12085331662870
H           2.77558259654524   -2.92957613343454    2.00985804350328
H           1.65843002618676   -2.17406613833039    1.22963736669159
O          -1.95841112190303    2.23877314514989    0.32879282130387
H          -2.39577658180361    1.38129212521908    0.31577546203570
H          -1.22458748119990    2.15043660646729    0.94391943276911
O          -0.47126868989276    2.14839347313554   -2.02267954086675
H           0.38019570082160    2.07076420325902   -1.56993814621455
H          -1.10230397070698    2.40804733625423   -1.33021957698424
N          -0.85615043400896   -0.60899078513459   -1.97436160259809
H           0.07812629281279   -0.93931633653243   -1.75535183442743
H          -1.20411928400984   -1.09784488717830   -2.78821932096817
H          -1.53532831796017   -0.68664836133672   -0.66280540502191
H          -0.78159347357168    0.39404682489223   -2.19517575138581
