    23
        -45.37886199  Gyration_radius:  2.27361416344 Dipole_moment: 5.373
 S          -0.80381317133069    1.48759173199922   -0.74420519028981
O          -1.59740052786378    0.64526095120860   -1.63121221354515
O           0.60459616020213    1.46086109277509   -1.08799558931813
O          -1.30075450348523    2.97251171315012   -0.96638753378782
O          -1.05616849795484    1.19630550421527    0.65725918586682
H          -1.14465678508173   -0.31984712119536    1.24771380175706
H          -1.09740572999176    3.13331712036521   -1.88248349455492
O          -1.14361791945028   -1.27000074279672    1.52273983999300
H          -1.75879363049602   -1.33486779433730    2.25464588604381
O           1.68698997140477   -0.98956015600995   -1.09333980036568
H           1.46203377262125   -0.04381339876675   -1.20975664287645
H           1.88764255524825   -1.08412564321025   -0.12561678107696
O           1.71197541788459   -1.03390546964101    1.54291611581427
H           0.79704522429146   -1.27497361597230    1.73896911009434
H           1.76522212213306   -0.06745017266265    1.70310170335508
O           1.43910562895700    1.65591760109328    1.54722420969957
H           1.76789149935365    1.87275929095579    0.66831548183499
H           0.47519264460801    1.60930709724382    1.42671394084217
N          -0.75822052516817   -1.76055677108854   -1.12451970472317
H          -1.20145070880145   -0.84431252769657   -1.43117218190116
H           0.32321834158194   -1.57359236260697   -1.18204985089627
H          -1.00326775041750   -1.89685594917780   -0.13041579910682
H          -1.05536356824849   -2.53997037786235   -1.70044450284903
