    23
        -45.37426632  Gyration_radius:  2.38495076606 Dipole_moment: 2.705
 S           1.70908286481227    0.01708208117597   -0.96304631014600
O           1.62070848618383    0.72729410798973    0.30697525457560
O           1.27004103045601   -1.36056196329700   -0.85800191722366
O           1.05323108187633    0.75153672393504   -2.02888903401861
O           3.25150070067317   -0.04275958818747   -1.32724119733790
H           3.50101458566902    0.87608238919525   -1.32597399909173
H          -0.40252181275490    1.25830191227119   -1.61241447414694
O          -1.40337981250474   -1.23116142653415   -0.74384702631540
H          -0.48859851052686   -1.46523160405597   -0.99166350533990
O           1.14974687105594   -2.29308061980065    1.68785037771007
H           1.69263426635188   -3.07774582111457    1.76868419436452
H           1.24931467250416   -1.99637461165225    0.76249910119288
O          -1.35046208858385    1.47424847594207   -1.40558699344267
H          -1.63940205132655    2.04682219478371   -2.11835405821547
H          -1.59330854658268   -0.39151615076495   -1.18933966264199
O          -2.18939774742442    1.89680758632398    1.18998772398715
H          -1.84291520219266    1.86492638799956    0.27773780822170
H          -3.14408830193946    1.85812481926818    1.11581665988846
N          -0.50363287218952   -0.18183726878234    1.52684563699699
H          -0.22422029930565   -0.84181726519841    2.25163712841754
H          -0.96419590470689   -0.70876386629781    0.73147880488246
H          -1.13336319695838    0.57961776533401    1.82455153338706
H           0.38221179740853    0.24000574146535    1.12029398430305
