    23
        -45.35620430  Gyration_radius:  2.38620610443 Dipole_moment: 7.236
 S           2.02424376940176   -0.38581595727738   -0.98476342787098
O           0.72334300928574   -0.90746771813702   -1.34005392263636
O           2.80407605997310    0.16505717344667   -2.02915151859346
O           1.79133205717069    0.68519062072564    0.14477429020053
O           2.80300441303130   -1.44908016661408   -0.20210388123635
H           2.10148713621570   -1.95305170433663    0.33201319365816
H           1.17682364038169    1.40887873377799   -0.17685525724951
O          -1.90315010098810    1.12797459085381    0.83689269298252
H          -2.77674071081857    1.41519255607648    1.10583191125039
O           0.12088134004808   -0.20228666137696    2.22546519122839
H          -0.66922457842699    0.23100495879968    1.86394628046885
H           0.87265313619797    0.22970003407036    1.79988939528776
O           0.71865755023449   -2.43427441764263    0.87002564229666
H           0.31323927714663   -2.15011378919238    0.03726363448000
H           0.44587156175605   -1.76560141007614    1.53905865432820
O           0.05137119928030    2.51683791234683   -0.36904786823965
H          -0.71622888248059    2.09153074401556    0.07531487871949
H           0.27777432139158    3.29641502524150    0.14280908069916
N          -2.08220810152106   -0.44902335143592   -1.25550499256688
H          -2.02786246034219    0.49351001248016    0.06027144398696
H          -2.44471819185069   -0.00337954957108   -2.08931032037316
H          -1.08439206413312   -0.60246286526010   -1.40982636904250
H          -2.52023337097360   -1.35873477093777   -1.17693872180120
