    23
        -45.37695651  Gyration_radius:  2.34881283225 Dipole_moment: 2.676
 S           0.38653919153083   -1.63833849116021   -0.22939833202557
O          -0.77320659438076   -1.06002790379389   -0.91587941727854
O           0.01878027559181   -2.69843316890263    0.68104763662731
O           1.25898224246572   -2.33017450643154   -1.37566142280397
O           1.20749408705021   -0.61116932384544    0.37018322411319
H           1.46072648906629    0.95748349571565   -0.30447760782081
H           1.11411253074255   -3.26108586494989   -1.23286396270539
O           1.37275427551149    1.79186038098628   -0.80490670429875
H           1.13142725123249    1.49467313706089   -1.70167726029466
O          -0.30548380594233   -0.95518390520525    2.64581623890808
H           0.57412384057045   -0.57746338687894    2.53577100646417
H          -0.27580066028766   -1.76134250910929    2.08730946136288
O           0.62198176162954    0.17085594638801   -2.85857955167985
H          -0.00712387737416   -0.26700511914336   -2.25813206357442
H           1.32638695955352   -0.46610580427488   -2.99610977217948
O          -0.58812041378719    2.85014006174542    0.51635954988408
H           0.15960399993925    2.52902828762294   -0.07276465463502
H          -0.16351341189999    3.31955351778694    1.23605071456391
N          -1.72919390999812    0.51399446013843    0.94572264845672
H          -1.26572818719581    0.02079825008209    1.75828036816348
H          -1.32391438189429    1.49196761588083    0.81958141496057
H          -1.46336580157629   -0.06192228111530    0.09986835631750
H          -2.73746185052130    0.54789710135483    1.05446013948748
