    23
        -45.34920444  Gyration_radius:  2.49790870439 Dipole_moment: 5.057
 S           2.26411687240404    1.08463209606016   -0.17694870118740
O           1.84985096516868    2.43593881392326    0.03537670585200
O           2.21091246852348    0.18560057672866    0.92786751541074
O           1.54400555037028    0.49862501517628   -1.39197944888906
O           3.76218887850080    1.14293036061852   -0.68050375274817
H           3.85983874381204    1.99059939473802   -1.10849822927037
H           1.03421307794667   -0.40695407856385   -1.22070459114002
O           0.22441385629750   -1.59764390970580   -1.11617819029645
H           0.33062562379711   -2.09596031652961   -1.92822593732709
O           0.00289560985860   -1.15783363172779    1.68494840742723
H           0.02027498785092   -1.65033805759851    0.85483571961708
H           0.89503751322281   -0.78837051084651    1.75852273940808
O          -0.65616278932568    1.41414987369345    0.61163391918362
H           0.14300120973602    1.94116895943833    0.49649657692339
H          -0.40796382121680    0.62786936073873    1.12281544733385
O          -2.78673994353252   -0.70804451857395    1.65290946771944
H          -2.75378346947446    0.24143333462555    1.79551006635444
H          -1.90437617799579   -1.02944410778695    1.88677453599851
N          -2.01693105449158   -0.41002379022280   -1.08142739348660
H          -0.74884663964696   -1.14985134364876   -1.14492007254063
H          -2.55577538812436   -0.75767476318336   -0.28588642119446
H          -1.68764405189566    0.51571920742462   -0.80649204609237
H          -2.62315203177683   -0.32652795475733   -1.88592632709468
