    23
        -45.36288402  Gyration_radius:  2.50245489931 Dipole_moment: 7.506
 S           0.68754311492464    0.68175723894551    1.64122548107354
O           1.61493245575179    1.41531848333109    2.45886093340683
O          -0.61408586444518    0.41662341935212    2.21373872531253
O           0.35126580535225    1.61473256315711    0.35236110178091
O           1.27163948787215   -0.52360498678476    1.04607213436221
H           1.55809783554316   -0.92328177749472   -0.50247496756595
H           1.25061478248696    1.88185212732869    0.06227922112391
O           1.55546763959492   -1.17819082140099   -1.45932010926441
H           1.99485708529273   -2.02771400632747   -1.51049842986202
O           2.96304147624905    1.80598804482410    0.24317296541509
H           3.28674574902422    0.93025432697078    0.01841210890191
H           2.73585170596520    1.76936649457684    1.19617583721463
O          -3.45625972069257    0.25356475726283   -1.97708335654731
H          -3.67837586154480    1.18721940727262   -1.99744381721363
H          -4.11238160304263   -0.18546224085804   -1.43020784230696
O          -1.24217882938111   -1.86491519251353    1.20506591277402
H          -0.39696802887250   -2.30977388392349    1.31547236787809
H          -1.13320339403413   -1.03005778841584    1.73464017941768
N          -0.94581602629926   -0.38170206175824   -0.95048452062975
H          -1.78859814548769   -0.19346267624956   -1.51151553168379
H          -1.15673868461569   -1.06293005728964   -0.15468321090466
H          -0.14851956441109   -0.76239621810631   -1.49542108734057
H          -0.59693142544702    0.48681484797821   -0.49834408507310
