    23
        -45.36963245  Gyration_radius:  2.27079570866 Dipole_moment: 5.880
 S          -0.56113677111204    0.62148622134683    1.91419504072130
O          -0.96566528701615   -0.23387266796702    2.98749809756566
O          -0.47953521046852    2.03099622470418    2.15459298552628
O           1.00259324671745    0.16531311336568    1.61925325335338
O          -1.21448167219755    0.30316578031698    0.63661849962146
H          -0.97425471012204   -1.32242315524710    0.91315696100369
H           1.38428856921535    0.30565922345073    2.48027020329679
O          -0.59743271878056   -2.22577154826827    0.87933119935337
H          -0.35668148975346   -2.41240993180401    1.78903034147258
O          -1.59286289530077    0.15153898011371   -2.03003330954091
H          -1.81506088760095    0.16624393804528   -1.08337338701992
H          -1.21054566578345    1.02014667297690   -2.19785304277875
O           2.06263032494783    0.46346280754738   -0.87650845617966
H           1.45634358707661    1.22554230428072   -1.00732108468820
H           2.02698948162572    0.32170179141683    0.08204636193183
O           0.04554788837728    2.21909714967546   -0.66504110450969
H           0.16597029174489    2.97619766343804   -0.08671587810243
H          -0.44406941398597    1.57961849507782   -0.10603287118290
N           0.42538985705101   -1.49832318356981   -1.49759340226590
H           1.19255300582222   -0.77574167086366   -1.31583663776101
H           0.71348455615917   -2.20902446080710   -2.16083980190030
H           0.14645292419874   -1.92343147139430   -0.58200267683459
H          -0.41051701083591   -0.94917229579605   -1.84684128109544
