    23
        -45.36542595  Gyration_radius:  2.34264952839 Dipole_moment: 4.545
 S          -1.09831521863509   -0.64361182616830    0.40250409478548
O          -0.62831347168550   -1.08956296574740   -0.91017932953882
O           0.00239740596218   -0.49258609998245    1.33884293304081
O          -1.86855699207252    0.59422829074896    0.28256180954673
O          -2.03661067654203   -1.74332026378334    0.97294451468684
H          -2.63904727676732   -1.93846158344933    0.22468913911406
H          -1.09164400967136    1.75687289538410   -0.03879005651513
O           0.90562016119872    1.89739422735422    1.95553975455642
H           0.52245128323451    0.98916733606910    1.90701317263002
O          -2.98910360927292   -2.11080063590368   -1.45278152423400
H          -2.11132434032406   -1.69218906108272   -1.55416697556961
H          -2.92306167747560   -2.98704168030949   -1.83939693981516
O          -0.30621760323515    2.44017277019786   -0.22472944871499
H           0.19164712910463    2.44133901746826    0.66380917222210
H           0.31061433196780    1.87832689194608   -0.89241249828296
O           1.04244710729335    0.84490193230845   -1.58206759393206
H           0.41126272036155    0.09214161341731   -1.53392058572713
H           1.80122104612792    0.54377808303936   -1.02648037160780
N           2.63057998621801   -0.41963434868074    0.18691747691990
H           1.85693702082262    1.79152278112996    1.88687763545657
H           1.77091892298284   -0.63594256486574    0.69508787765298
H           2.88106179728764   -1.25509420386336   -0.32843887841965
H           3.36503597313172   -0.26160061521348    0.86657662174808
