    23
        -45.35094039  Gyration_radius:  2.37629825661 Dipole_moment: 8.131
 S           1.42781813790162   -0.59377745916342    1.74814615804888
O           0.02718803984072   -0.28932651661184    1.61097180309953
O           1.80148190198464   -1.49755048712192    2.76960506918776
O           1.93120367964969   -1.09599819847776    0.34622103729372
O           2.22369273707417    0.72307079214064    1.89776861064644
H           2.05346208271393    1.22919805905204    1.06097778871280
H           1.16332054688406   -1.35564972078766   -0.22625591628709
O          -0.45215426473937    0.99813039605898   -1.73744028866089
H          -0.82168265063075    1.47216140833477   -2.48359927843073
O           0.05108382576876   -1.60268022125647   -1.40429711302747
H           0.47399697303555   -1.94521042686636   -2.19417672854465
H          -0.19650618420467   -0.66639116689748   -1.58607092364717
O          -2.11225386911226   -1.74651155707019    0.53549592664938
H          -1.45930953188479   -1.35717589194622    1.13454218660630
H          -1.59554783083020   -2.05795774620821   -0.21344187065033
O           1.84625291300664    1.70070476806702   -0.48594793236917
H           2.50500704802389    1.16292325597438   -0.93166260191830
H           0.98652483980049    1.49505957279216   -0.91077932847823
N          -2.06521475171090    1.14241441171422    0.26405894577502
H          -2.65475064506900    1.91527913192262    0.54453627168977
H          -2.62890086083653    0.29548305147706    0.22639623296377
H          -1.12527381713910    1.10192187131811   -0.96174436026942
H          -1.37943829951693    0.97188267355838    0.99669632160235
