    23
        -45.36347136  Gyration_radius:  2.29989143852 Dipole_moment: 6.383
 S          -0.56063733896534    1.50331013711644    0.16270486758321
O           0.27108968929435    0.47144595596938    0.77071117411616
O          -0.21360813158292    2.82987594094874    0.53700042118833
O          -0.55659215717489    1.31135715294634   -1.35566843303714
O          -2.02308095789287    1.20520110878733    0.52258990179593
H          -2.17715699287231    0.25561935585553    0.21954162692426
H           0.40030015616484    1.17494363691394   -1.76898774926955
O          -2.24473069827417   -1.26547476459234   -0.14403209283058
H          -3.13798543382555   -1.58564718146170   -0.00221955181110
O           2.44424458054095    1.98645560649647    0.17034309719765
H           1.96409567339473    2.81670978834828    0.25957738411682
H           1.90223793290462    1.34385728168162    0.65068695309758
O           0.81913214941102   -1.44804944789348   -1.04714600884946
H          -0.04370972117073   -1.61000068848062   -1.43664079735693
H           0.65356707558582   -0.84249994142105   -0.30210943947934
O           1.76602234764303    0.83744426162471   -2.14949605181362
H           2.26721788370224    1.27268168716458   -1.42458004141185
H           1.72689497028175   -0.11606599655636   -1.93254844606222
N          -0.61560684979348   -2.11160442409998    1.76237079478027
H          -0.15594521781394   -1.20442629926720    1.79747182761550
H           0.06887735522820   -2.78308003932958    1.43583875538417
H          -0.88603848614945   -2.36746815830996    2.70342392570599
H          -1.66858782865758   -1.67458496244902    0.57116791236810
