    23
        -45.37470686  Gyration_radius:  2.34946985834 Dipole_moment: 4.633
 S           1.42019580590882    0.64413951384741    0.92806395969502
O           1.53316714493219    0.11432310972049   -0.44341223737359
O           1.28181397504960    2.07554986928982    0.95323647796812
O           0.32695978851673   -0.04798429372653    1.61107042661215
O           2.75594214403541    0.28213747200462    1.66734084722521
H           2.85621897619965   -0.67955490592869    1.57882928497538
H          -1.48128838382501    1.36404126085955    1.34543876145830
O          -1.32406678858264    2.12843539312080    0.78082367636736
H          -0.38915637383715    2.36595589140262    0.97074913745775
O          -1.09364511754050   -1.79487709651841    0.20155619423770
H          -0.46582430015691   -2.51603242885334    0.10717450509195
H          -0.63750756940721   -1.10776761817162    0.73739273351384
O          -2.14547077784996   -0.88696828661441   -2.05300722532089
H          -3.09272440857929   -0.82341995198863   -1.91982663365864
H          -1.78543769161212   -1.33374325791889   -1.24884714091246
O           1.92537859038531   -2.18698731816711    0.90739585130337
H           1.84097598598236   -1.60027309982298    0.13751716417629
H           1.23252899348201   -1.91000610390538    1.51963285630543
N          -0.55776115483335    1.19545784086547   -1.58311502968374
H          -1.19881835684782    0.43275538609088   -1.92545425385352
H           0.34872596904289    0.75288770104834   -1.24384809573945
H          -0.36522236993245    1.88245711436693   -2.30422735731487
H          -0.98498409053868    1.64947380902373   -0.72448391251995
