    23
        -45.36673432  Gyration_radius:  2.46692481432 Dipole_moment: 5.522
 S          -2.06140516460316   -0.60366045165057   -0.92299420203812
O          -0.89397614459996   -1.13006839908214   -1.61463294845870
O          -3.29276074981424   -0.62083733192308   -1.64255202645588
O          -2.28075396936473   -1.60798465043048    0.32875673851872
O          -1.74339560584697    0.68613071603931   -0.29306844769161
H          -0.35274797528483    1.21724942309893   -1.06324547610618
H          -3.23045051947201   -1.65414609260148    0.32690585545720
O           0.54013256940863    1.11852889895485   -1.46783334386255
H           0.41654995838150    0.32998644716265   -2.01572324812845
O           0.41664717867916   -2.41443866825597    0.23741983881612
H          -0.03651450465089   -2.04343902858688   -0.55947203849798
H          -0.30665144165740   -2.64330757383175    0.82753185146173
O           3.07171667433464    1.87312436030443   -0.33476117489198
H           3.71323656483309    2.47296997679042   -0.71654145752094
H           2.30370409238078    1.88203196096202   -0.92217937579366
O          -0.78240025995446    0.83550776884980    2.12537260231714
H          -1.25245322151086    0.73062496542599    1.26008734592985
H          -0.97021011631517    1.72950778398166    2.41550805385057
N           1.37688521183620   -0.03654492164919    0.82885776388484
H           1.16902319418309   -1.06698677297032    0.69631786484520
H           1.15459678601967    0.43296776774893   -0.08756228558797
H           0.69749161770474    0.34411150737696    1.52834999586728
H           2.34373580528993    0.16867234431422    1.06545811414192
