    23
        -45.36984210  Gyration_radius:  2.38496544868 Dipole_moment: 8.078
 S           0.78239466759578   -1.82410756935209    0.52932886882088
O           1.99159724558508   -1.13085361361657    0.07379414786609
O           0.26005938163110   -1.32940930070189    1.76658054324890
O          -0.20704327649720   -1.84623834361892   -0.55322246216630
O           1.22304537956942   -3.32784518323406    0.75181682110315
H           1.71976576842153   -3.49953073725893   -0.04092753644845
H          -0.29196472996320   -0.72534801858683   -1.71655502354086
O          -0.31168986814640    0.02548615713950   -2.36636144945619
H          -0.13960444898004   -0.36467003922409   -3.22421702864576
O          -0.01956270561794    2.63049886456611    1.08989578750343
H          -0.52165950838852    1.92651446270768    1.61011863867886
H          -0.68878006313359    3.24086000402987    0.77627233878021
O          -1.39956426398688    0.74500644486487    2.17563369138297
H          -1.98707306798728    0.45498114146683    1.45297154677124
H          -0.78182028237794   -0.00114198535110    2.27709819397684
O          -2.40147952935743   -0.30171436783491   -0.13333430765126
H          -2.31332042373865    0.14256447532134   -0.98032813942963
H          -1.72792069131196   -1.00565981960639   -0.14174260797734
N           1.37306723184730    1.25986760275101   -0.67490707900362
H           2.17511252158316    1.78692461867462   -1.00379877677081
H           0.73706292615535    1.00238777200922   -1.45938304940290
H           1.69332723071428    0.32073935426790   -0.26413527923280
H           0.83605050638749    1.82068808058955    0.05540216159785
