    23
        -45.36288482  Gyration_radius:  2.49918432301 Dipole_moment: 7.401
 S           0.86244611059308   -0.54944198694731   -1.59633866453912
O           1.06029758003393   -1.38264081207209   -2.75094510139242
O           1.45318504629357    0.77022306648925   -1.63895056145920
O          -0.73234814564839   -0.24656813316497   -1.49805116455120
O           1.15746028681677   -1.23308371438500   -0.33393631820523
H           0.19943018379494   -1.63056776670975    0.91903731927621
H          -1.11136114085044   -1.14691790663088   -1.59866650240234
O          -0.38947036716440   -1.69858640642135    1.71187435506610
H           0.10348179269857   -2.19097887054590    2.36907514082691
O           2.08638349618571    1.20562093317453    0.81622179993949
H           2.45754352378715    0.34354694914200    1.02521915815006
H           1.98102539089634    1.17685471913196   -0.17218678815489
O          -0.89341574274879   -2.84607707555801   -1.79053916499173
H          -0.51693874426799   -3.22862475687988   -0.99418034214319
H          -0.12981450682675   -2.56110533220529   -2.33538156189445
O          -1.73969746689200    3.35175366142327    1.26189489291265
H          -1.04245373957166    4.00987837210217    1.31806115342072
H          -2.31696465542791    3.60729522172318    0.53873645646825
N          -0.52081701427311    0.86651625524432    0.96822889282609
H          -1.08587993755601    1.68751664009226    1.22797851445710
H          -0.70375939012759    0.02353547202143    1.54489935890479
H          -0.70206131695775    0.58703247122343   -0.01657549473013
H           0.52372874721859    1.08481902975842    1.02452462221869
