    23
        -45.35355029  Gyration_radius:  2.52489728823 Dipole_moment: 3.685
 S           0.55779867415393   -0.16947481085900   -1.66986391767175
O          -0.87107069361640   -0.38448297481118   -1.72929094648598
O           0.98135247478182    1.10684635856719   -1.21870580173612
O           1.15738880363430   -1.30895021919995   -0.79957000438398
O           1.18117041798332   -0.48718644562817   -3.04325344877507
H           0.75093177759248   -1.33200147207705   -3.32894248726924
H           0.88951374369409   -1.19522102535360    0.17390129112167
O          -1.74658632823806    0.28590701144734    0.79003539600547
H          -1.68710486558954    0.11049833541845   -0.16160803236747
O          -0.34799405695568   -2.58895170991640   -3.13657031670570
H          -0.91694821248384   -1.95585563434613   -2.66444614298669
H          -0.03264179415672   -3.22168752661544   -2.48637177589417
O           1.05168526548237    1.17240254730296    3.19239697590312
H           0.40745440939128    1.04055203170761    3.89043247921600
H           0.99633820441667    0.39542170215656    2.61856541453290
O           0.26223741942092   -1.04486435292780    1.57336726982987
H          -0.03005625002875   -1.89311301267714    1.91365526346084
H          -0.58837875674261   -0.51732857035037    1.33077640345767
N          -0.38148755284812    2.53255199132403    0.97455004696546
H          -1.38295148778697    1.21495070537804    0.90650668565709
H          -0.65568503563266    3.50556626531319    0.93555922548965
H           0.22127373208660    2.40517246768263    1.78451665118661
H           0.18376011134821    2.32924833847955    0.15435976142844
