    23
        -45.37695719  Gyration_radius:  2.29625454477 Dipole_moment: 3.461
 S           1.05053383702272   -1.38264638807947   -0.76919799116781
O           2.46002342547713   -1.23963034152528   -0.53058022471101
O           0.32293794982952   -1.83176038066235    0.42411528969637
O           0.42330518144000   -0.19760987247965   -1.33794331529742
O           0.86156413386914   -2.52645735101829   -1.85357710578519
H           1.57816394574060   -3.12973873106605   -1.68063016233811
H           1.42808107551140    0.92112087396886   -0.52151257703760
O           1.93739128849921    1.37606184144311    0.17905666936818
H           2.75484561556043    0.86817881984339    0.21393399946415
O          -2.14253475149838   -1.19514141949052   -0.41639183161670
H          -1.30594742022752   -1.57179089379988   -0.08556653170937
H          -1.94903073642908   -0.90704667795206   -1.31197314361334
O          -0.94150998899425    2.15569286060689   -1.12511790447541
H          -0.20713168031614    2.76074478518717   -1.00215001985995
H          -0.54378520722418    1.30179542547917   -1.36455400589578
O          -2.15925356740278    1.07571561833846    1.01263585093133
H          -2.39258529751774    0.22560426796382    0.57535738863471
H          -1.89443901798513    1.65648450812869    0.26895052336297
N           0.15463810243965    0.33614499860682    1.89993042638888
H          -0.83779678677060    0.70899762509914    1.63338989944340
H           0.22738175974189   -0.62241308274742    1.46574629923972
H           0.88419967916782    0.91560032448837    1.42206012769202
H           0.29094847006528    0.30209319959897    2.90401834926227
