    23
        -45.36113374  Gyration_radius:  2.3288768769 Dipole_moment: 5.473
 S          -0.56391659323130    1.09245309046675   -1.65417733432714
O           0.07792049480881    1.96484130310746   -0.69177272608056
O          -1.14837644189454    1.68909502426984   -2.79492210842871
O           0.48530885572764    0.02586563021364   -2.09179034890452
O          -1.62458188348458    0.24829465184815   -0.91800462925343
H          -1.46355039075280    0.18905467629539    0.09879377380538
H           1.26936371368713    0.11309294890220   -1.45437462521554
O           1.01719779436722   -1.49262445211763    1.28772324970710
H           1.41741411054859   -2.16832932409396    1.83630787095302
O          -1.19070528866796    0.08600520804654    1.56867231341140
H          -0.38812470219648   -0.46009887042802    1.65143619219412
H          -0.93718671081073    0.99362288327046    1.84625498069644
O          -0.38006221174017    2.61856952749049    1.84771569154796
H          -0.15463844450176    2.54655194211686    0.89976718598830
H          -1.00686374021258    3.33977551852554    1.92239343052506
O           2.21644539248004    0.38232355639232   -0.26466554379828
H           1.77947544678279    1.22408579687564   -0.07071951379578
H           1.92190605839057   -0.25544697896787    0.41547787872088
N          -0.31525588953073   -2.50936928743594   -0.76442043579501
H          -0.05744786516258   -1.86468131887272   -1.50691410888847
H          -0.21156118535249   -3.45264908949082   -1.11763505526125
H           0.55516110282059   -1.95985562445203    0.52780635803652
H          -1.29792162207959   -2.35057684196300   -0.57295249584065
