    23
        -45.37639789  Gyration_radius:  2.29120160293 Dipole_moment: 4.233
 S           0.23699939759918   -1.52033837764970    1.12719145457517
O           0.68793108776810   -1.19042162788878    2.45083380282462
O          -1.18638857137088   -1.25773839698296    0.91984547365554
O           1.03524776965365   -0.89388473122917    0.07200438200635
O           0.43545415589087   -3.08512666608290    0.94026121260233
H           0.49334133297978   -3.42382002787642    1.82874735599881
H           1.29419521856793    0.54049149457887    0.97899951119743
O           1.16418028890402    1.36902571270575    1.48190968609562
H           1.19456224920866    1.07638378537954    2.39792752337407
O          -0.83279320707512   -1.42190260548243   -1.80799286580513
H          -0.00142557836479   -1.36594549682139   -1.30816765510963
H          -1.47881660332150   -1.68279353311212   -1.14307182282333
O          -0.92570687260300    1.24148716559214   -2.12096576503165
H          -1.00644389029783    0.26778171851320   -2.23776759794656
H           0.03951327464430    1.40534455232823   -2.14843104604484
O           1.70889182317765    1.27419274097114   -1.54815272434942
H           1.99435999866450    1.85966487895438   -0.84251705728550
H           1.64940346200166    0.39305664890550   -1.15051691823129
N          -1.32223484352793    1.30943658843781    0.43556787155599
H          -1.22331211769349    1.37636235572487   -0.65045371069325
H          -0.42515253349803    1.60440527357740    0.88024835778086
H          -2.11142692423056    1.84477060632971    0.77984580885840
H          -1.42037891706974    0.27956795113808    0.66465472279254
