    23
        -45.35160183  Gyration_radius:  2.39757780275 Dipole_moment: 5.938
 S          -0.58809187944773   -1.16034792729204    1.94748678371437
O           0.78956677864187   -0.78561677573465    2.08363718742757
O          -1.42846704239400   -0.99770605082893    3.07849348913851
O          -1.18251531131551   -0.35863168173207    0.72342522207954
O          -0.70792568297033   -2.59231474839318    1.39420676457814
H          -0.17166124155488   -2.60321991665573    0.55272253516102
H          -1.01697127116763    0.61186765207139    0.83499289026213
O           0.93685689974760   -0.03199220245794   -1.85266288938653
H           1.61825975105932    0.03039142548130   -2.52357729872218
O          -1.47743886856726    1.22356368997912   -1.76217059821196
H          -0.60585969218976    0.81322577695621   -1.92715025104015
H          -2.01920671920315    0.51535109034727   -1.40403930024180
O          -0.96349571696896    2.26047768770563    0.62187541963109
H          -1.74657857260828    2.66710881380786    0.99771119259763
H          -1.14930504733966    2.10847628368665   -0.33786749942401
O           0.48675421683978   -2.50929197813680   -0.90680356638623
H          -0.14118367761341   -2.89067176516725   -1.52403683183223
H           0.65235119253909   -1.58662589628323   -1.20971206141288
N           1.81008966853365    1.12237995809300    0.29860122243532
H           1.22680849884794    1.92356946654293    0.51222891447118
H           1.30744701422100    0.43536191608675   -1.01935295095094
H           2.77704183879055    1.39431556747488    0.42155375149613
H           1.59352486436575    0.41032960444402    1.00043785458645
