    23
        -45.35926838  Gyration_radius:  2.42768891902 Dipole_moment: 8.097
 S           1.22586104066309    0.73931757426648   -1.99975293637465
O           1.93823058099820   -0.10146017571330   -1.02050393486031
O           1.89184635039046    0.88720447707331   -3.24698620333534
O          -0.14088505833885   -0.10113644233790   -2.24954106277819
O           0.75666974103995    1.97536904814156   -1.38370416543774
H          -0.07255806700569    2.06644112868053   -0.11996108149330
H           0.11818292790668   -0.98779074366019   -2.00293299972442
O          -0.56722014282938    2.07514881839358    0.76543712296965
H          -0.77001864285539    2.99598758579382    0.93520564073547
O          -1.00056712615734   -2.16837666770454   -0.27420948264926
H          -1.59580094978296   -2.83667281245583   -0.61558180414857
H          -1.49738623141219   -1.31251108188712   -0.29904511791298
O          -2.19661095325816    0.19902057790473   -0.43254138705711
H          -1.79100168161066    0.34032899164412   -1.30009107323933
H          -1.78888550363235    0.87049252519962    0.14045953838157
O          -0.01035128471134   -1.94287589483490    2.18945919007047
H          -0.29978681052349   -2.17815120181407    1.27923314331832
H          -0.81173647748864   -1.81875342253214    2.70134642243823
N           1.32851979978119    0.26478499796716    1.41710836394711
H           0.62644252167439    1.02894564184041    1.39928071222737
H           1.62117075868965    0.09119873346017    0.36734609323836
H           2.14547392106449    0.52325145689134    1.95863432350663
H           0.89041126737978   -0.60976312431992    1.79134068818259
