    23
        -45.37372477  Gyration_radius:  2.56741971895 Dipole_moment: 5.655
 S          -2.10663179628234   -0.32248305738597    0.89115188527267
O          -1.17465623961529   -0.68993794321005    1.95088443185565
O          -1.99757401799943    1.06512365117088    0.49334236878139
O          -2.02654369285738   -1.24849928236908   -0.23183229235987
O          -3.56407282377515   -0.48611589951428    1.50340774660005
H          -3.60584273808787   -1.40526131979198    1.74964968747989
H          -1.42174360130915   -0.31230757211366   -1.50196477088362
O          -0.97570358652833    0.44060633592381   -1.94965789973738
H          -1.39587071324277    1.20276353906792   -1.53276928940551
O           0.44594533951115   -2.16465909912108    0.50419084810247
H          -0.05794858636427   -1.71314597419887    1.21773320879341
H          -0.25057768146517   -2.41103670913124   -0.11636917632610
O           3.75496598767113    0.84525365604959   -1.66288983919797
H           4.37714406699143    1.42254474632192   -1.21569868985742
H           3.87443879333382    0.96264208114642   -2.60741570578411
O           0.34468117105903    1.54818901566807    1.57843850666197
H           0.21851190381042    0.84828797193077    2.23174053190195
H          -0.55319733129753    1.62953671631786    1.18988170932162
N           1.25224142892190    0.16204247920129   -0.51050939628500
H           1.14079931573619   -0.82591671079193   -0.16105996496468
H           2.17888636105783    0.33177024676560   -0.91297437198921
H           0.48375502887711    0.32200048785644   -1.21636166386370
H           1.05899339200154    0.79860264998595    0.30908212624616
