    23
        -45.37879740  Gyration_radius:  2.32693411807 Dipole_moment: 4.334
 S          -0.27743894621292    1.65894573317111   -0.94062662771937
O          -1.05114776945794    0.61134161490903   -1.59876631616681
O          -0.39006565524490    1.60647147089533    0.50150211686222
O           1.09760592370787    1.67244635580606   -1.40920496023465
O          -0.92507324826089    3.03215537730507   -1.38420756167289
H          -0.82147456174627    3.00309964861020   -2.32954623645992
H           1.90722171252505    0.34751254929437   -1.07701857903751
O           2.33596013448851   -0.52271262093963   -0.85158492302249
H           3.20393206048929   -0.50202176401836   -1.25728392976090
O          -0.61791032644496   -1.85511235022881    1.66888877448997
H          -1.38773406981499   -1.24832116689744    1.73362388310025
H           0.15340027469886   -1.30040976621225    1.93281595956910
O          -2.36182386623727    0.17078299385439    1.55296768329510
H          -2.62026103353931    0.64884217799179    2.34274500418311
H          -1.70999324868958    0.74314770910532    1.09506062841947
O           1.34404824548762   -0.05748990941955    1.76636805759871
H           0.78424351396204    0.67031545544358    1.44078658290142
H           1.93747910941866   -0.26700267646314    1.03327951122596
N          -0.12139306242360   -1.70756100955844   -0.86121317288063
H          -0.37578030233383   -1.86802917431772    0.19091810678199
H          -0.60135909474622   -0.81537105505629   -1.18488387233590
H           0.89450435470432   -1.52605704208023   -0.92733314796813
H          -0.39694014433010   -2.49497255120404   -1.43728700116993
