    23
        -45.36109213  Gyration_radius:  2.33104103953 Dipole_moment: 5.412
 S           1.77828717974470    0.47167323235912   -0.92692878311553
O           0.72409153094296    1.30971867028023   -1.46068034098853
O           3.11229450975612    0.80099872643075   -1.26040993310455
O           1.62628711701149    0.43288323301445    0.61434433063335
O           1.47828589271843   -0.99511327737270   -1.33673663871244
H           0.49602491541051   -1.02485395007309   -1.56511214211948
H           0.73095217537445    0.82993488518822    0.95947187523599
O          -1.74567618270146   -1.09710708579778    0.81846373648252
H          -2.47896379560386   -1.60512571343648    1.16760121600014
O          -1.02228293203218   -0.72833950651698   -1.77194091081457
H          -0.84565313323635    0.21673780316880   -1.88290341762080
H          -1.44407218896522   -0.83801952274808   -0.89689076598701
O          -0.59016766560755    1.29153103548031    1.44694876046311
H          -0.89054145319126    1.98848849638418    0.82170561134072
H          -1.16947205424684    0.52116591727211    1.30394135698622
O          -1.09167936504703    3.01602555014348   -0.53127586096629
H          -0.76096162798460    3.91466384015936   -0.48925750945249
H          -0.42430414536895    2.49957249195931   -1.02312285038483
N           0.58707803827453   -2.28243040853630    1.24137073979206
H          -0.90457617197645   -1.60529710384549    1.02727371303796
H           1.18725530659890   -1.46208493085045    1.27205008408339
H           0.79052465499217   -2.84917976832411    2.05547739627618
H           0.85726941540114   -2.80584261456968    0.41661032316419
