    23
        -45.38321960  Gyration_radius:  2.25831398472 Dipole_moment: 3.081
 S          -0.88358076446973   -1.56552238222331   -0.62745419115858
O          -0.11206691232847   -1.77055795305254    0.59605442385383
O          -2.15538306966609   -0.92935172765288   -0.39755004308794
O          -0.07844274348640   -0.89162746323169   -1.64302740173085
O          -1.19907139560032   -3.00733977016968   -1.19674031693230
H          -0.33458329684686   -3.38659758206125   -1.31562922125862
H          -0.11383910309708    0.82484887014041   -1.60129848269053
O          -0.05783902741295    1.75506908749734   -1.29503398826865
H          -0.84952264721336    1.88642215242699   -0.74599836333844
O          -2.08476423302395    1.47405320809497    0.54635095767111
H          -2.97511652101350    1.80919929687365    0.66266472457669
H          -2.18358260430246    0.55501022906447    0.18444494950535
O          -0.10837896893311    0.40853513855530    2.13924114919021
H          -0.16305638774865   -0.48141911627754    1.73049746247987
H          -0.88714118079249    0.88577463609481    1.80591021742774
O           2.23794399569208   -1.15912549306783   -0.42126047703428
H           1.62801720282497   -1.58035808210212    0.21327042005586
H           1.64987455418998   -1.03152692085235   -1.18939098704415
N           1.76796827128563    1.26805190712358    0.52212799843207
H           2.17945280895355    0.35774765421856    0.17155003460665
H           1.13400341894880    1.63035741262686   -0.25667883452531
H           1.11111932416061    1.01133350103716    1.32338569311829
H           2.47798928999739    1.93702339696084    0.79456427607559
