    23
        -45.35625925  Gyration_radius:  2.33327816863 Dipole_moment: 5.629
 S           1.95932430699764    1.02596682343365   -0.42152799161900
O           1.78267513150670    0.27307552805527   -1.64186524503787
O           3.05992619843040    1.90549684981496   -0.31899849779707
O           0.64054790688917    1.81852003612699   -0.17158377756412
O           1.95349597385678    0.02032825578320    0.76762857726032
H           1.86301134832790   -0.91546129352807    0.38244666041153
H          -0.05911867877425    1.33519952273364   -0.70881028945076
O          -1.10436843815762   -1.81011837719371   -0.23173253950086
H          -1.84994711570703   -2.40606942494648   -0.15161210356742
O           1.57288851297381   -2.14427698432721   -0.51077746772751
H           0.59995111504778   -2.22345602183274   -0.45758570968982
H           1.76044348345498   -1.61872098334266   -1.30337141693477
O          -0.91916577877913    0.44083321775521   -1.68202329353616
H          -1.09711205578147   -0.41123550868757   -1.22478110065120
H          -0.12813489645585    0.28568631554032   -2.21748288475275
O          -2.12738884645531    1.98513308526215    0.63401826604041
H          -2.25108736467722    1.67511459495098   -0.26816232605332
H          -1.35450577773254    2.55703582438375    0.61576676352026
N          -0.85870545311096   -0.32310888834490    1.88536319763360
H           0.11813412627153   -0.04810312161387    1.90206815364297
H          -1.11513861509000   -0.63214637906680    2.81383457094721
H          -1.40947509679060    0.50647996951556    1.66090178304052
H          -1.03624999627669   -1.29617305054938    0.64828667133685
