    23
        -45.37651758  Gyration_radius:  2.29552904996 Dipole_moment: 5.177
 S           0.62426753539978   -1.84906458415580   -0.19894376129444
O           1.24574571488414   -2.04484193609414    1.09103644337960
O          -0.80453510552598   -1.55692818070732   -0.11824511569260
O           1.30140922845174   -0.86458596081102   -1.02507841137799
O           0.74853510926551   -3.24826426237117   -0.93828193544806
H           1.29478077452079   -3.70954806982024   -0.31158021478853
H           1.53723707836250    0.61640630258096   -0.61147933190209
O           1.63521438477398    1.57680020751677   -0.34567111625335
H           2.31656214250623    1.93151543502430   -0.91871575437559
O          -1.71320962677315   -0.03757803857071   -2.03406311361844
H          -2.60223846306045   -0.36809874979450   -2.17523934418647
H          -1.28668623428862   -0.68193029344854   -1.41537633693885
O           1.18644630654049    0.36790973011402    2.22508202624855
H           1.31205559713641   -0.55957797770228    1.93811252653612
H           1.57018086592332    0.91249551212625    1.52710164052192
O          -1.39227480115122    0.32849860277596    1.67758860096155
H          -0.50893258290515    0.39142302345954    2.11746607977180
H          -1.32889080316470   -0.49276337122850    1.14714971027616
N          -1.03730721936688    1.89698490498934   -0.33716509497658
H          -1.26630246649328    1.33759264994249    0.57497481987822
H          -1.36564848033188    1.28446558342219   -1.12598718415401
H          -1.47048482903372    2.81265431202205   -0.35335686139940
H           0.00407587431546    1.95643516076043   -0.38932829118154
