    23
        -45.36765258  Gyration_radius:  2.4026153874 Dipole_moment: 3.939
 S          -0.68799739107445    0.56532578057085    1.86326190516043
O           0.55066060195177   -0.13087109001098    2.14324469136239
O          -1.32153837893757    1.23760364926964    2.94931569455796
O          -0.23959447216619    1.75878352531955    0.83564119084058
O          -1.58087492397072   -0.26105010676383    1.04307255127012
H          -0.74237814472853   -1.64724994507105    0.69724068422544
H          -0.82390548854702    2.46491026563982    1.09208939024635
O           0.00627891255677   -2.23272232840006    0.43560912873185
H           0.54242191170645   -2.29726464799014    1.23186858580393
O          -0.28519924019314   -0.03453533389731   -3.13334031276158
H          -1.06199347670967    0.25290409955115   -2.60589481600933
H          -0.53092243021304   -0.86499680169339   -3.54454652175498
O           2.95404822172190    0.14782491450943    1.01443146080040
H           2.12505558946412    0.05132067832377    1.52944145898084
H           3.60404375516137    0.50477030682257    1.61969029278278
O          -2.25377295010352    0.50730032196799   -1.37930113286142
H          -2.01240246750513    0.23818326876101   -0.46296103662846
H          -3.18195276100985    0.29019550174577   -1.47532472780557
N           1.00409510265702   -0.10547783769104   -0.79264689333315
H           2.00323748055534    0.00758103456957   -0.58295175322075
H           0.50443420624436    0.64312768712819   -0.29428497986597
H           0.74991661042858   -0.06506753563075   -1.80581951665204
H           0.67833973270393   -1.03059538703538   -0.37783536386947
