    23
        -45.35272896  Gyration_radius:  2.62719834125 Dipole_moment: 2.293
 S          -2.32514603512232   -0.17289708779159    0.57870898843099
O          -1.81755502617458   -0.74796602283464   -0.63945268453486
O          -1.96626917152552   -0.84483710600919    1.78290384217597
O          -2.00839620040299    1.31325416820260    0.62856040529676
O          -3.89563291244274   -0.15563887160112    0.47506166785079
H          -4.08505894890081    0.17783925294551   -0.39905388982140
H          -0.93665822744661    1.46933992345090    0.61081433193502
O           0.83027490936799   -0.93245863561080   -0.32443838954728
H          -0.10070982244534   -0.99368578581890   -0.61040148944903
O           0.44262617888528    1.54333561852266    0.50567910876290
H           0.70241413016122    0.61539358831606    0.26497430704136
H           0.62796303228629    2.07177353533565   -0.30798058055479
O           2.36213345477985    0.20894833178293   -2.26947831080453
H           3.26597597813230    0.04413971175310   -1.99608176983428
H           1.79982589620235   -0.32122323393596   -1.67427422529994
O           1.14670568704049    2.59519335848042   -1.83698970826819
H           1.80640293007255    3.28313778227032   -1.93489120478871
H           1.55726799230585    1.76300595350335   -2.15237935986835
N           0.55358589411347   -2.27004055332008    1.97163655010900
H           1.08789889207314   -2.00713239244227    2.79046653587317
H          -0.37452639272897   -1.85795584787061    2.06708714348924
H           0.88376811770079   -1.50520767846495    0.48415760645801
H           0.44310962380055   -3.27631801852206    1.98537114513941
