    23
        -45.36115117  Gyration_radius:  2.38626137646 Dipole_moment: 2.912
 S           0.50894087708158   -0.70894929058627   -1.78113871607051
O           0.54921594269559   -2.14283651127179   -1.85384358024418
O          -0.71855799428701   -0.15150015786973   -1.23271859193115
O           1.67964440675832   -0.14534285116001   -1.09451100633834
O           0.57787614935493   -0.16996483042778   -3.27345944563689
H           1.12441104042057   -0.81401215216519   -3.71240090023603
H           1.41424410052084    0.80437502472529   -0.06396520778097
O          -0.63395700813752   -0.39493097999636    1.39478304809010
H          -0.90451806066022   -0.40526950428115    0.45009500810735
O           1.00579456773512    1.40703600388284    0.70506990648040
H           0.30436863566902    2.00551274257589    0.18652764373758
H           0.39612955839987    0.72147563587548    1.18660733187244
O          -2.33832596173322    1.81705658165141    1.64626661084965
H          -2.35350221057910    2.22123335562930    2.51468920534541
H          -1.94877362537981    0.93638967589320    1.74981929052221
O          -0.88583126457026    2.42585490455543   -0.57872879934906
H          -1.58679029824748    2.40802577401962    0.10117978446168
H          -0.98292865156881    1.58468868735205   -1.07178883049348
N           1.03569776203590   -2.37488236802547    0.95238358331592
H          -0.05738718830357   -1.20971506688809    1.45747331339140
H           0.85113157444332   -2.41592411009854   -0.05153670497097
H           1.99980018024944   -2.08054845790130    1.05380395456918
H           0.96331745813825   -3.31777209551934    1.31539309233565
