    23
        -45.37539091  Gyration_radius:  2.30851471722 Dipole_moment: 5.222
 S           1.57745183363174    0.24494640927372    1.10623794367310
O           0.37532003560567    0.19751973649081    1.92574380486580
O           2.42661110817426    1.36978621479639    1.33975829882301
O           2.42134148373739   -1.06230210416984    1.52414394596922
O           1.25445396233478   -0.00204391187620   -0.30255147415293
H           0.60771261772533   -1.52018966409982   -0.35783318353749
H           3.16939889796305   -0.71566983363876    2.00165877947650
O           0.06628167546441   -2.34326808911766   -0.33352423378717
H           0.54677485731146   -2.94165089841269    0.24058074225413
O          -0.27461200118704   -0.20242510095666   -2.58494792797482
H          -0.38053747096507   -1.15649960363780   -2.55661446658482
H           0.42220776547246   -0.00243285075570   -1.94113833984534
O          -2.04525092186851    1.23612055712767   -1.15338631680613
H          -1.52990632502226    0.81278412803071   -1.87280682740115
H          -1.44999747894306    1.91658320233282   -0.79544108782519
O           0.12421075348475    2.46414068692396   -0.02752633882703
H           0.65781233963601    1.67071270325269   -0.17052282105560
H           0.59393324445653    2.95988459837700    0.64592270465143
N          -1.74603407856377   -0.59943881091452    0.66972115018639
H          -0.95062042353391   -0.21266863222454    1.26759357009437
H          -1.97217363927295    0.15130552451752   -0.07625391016724
H          -1.33887063138881   -1.43911972231013    0.21511582281931
H          -2.55550759428251   -0.82607454903712    1.23607015516232
