    23
        -45.35810205  Gyration_radius:  2.35135993671 Dipole_moment: 5.056
 S           1.97982240680762    0.54106953504533   -0.63066803324959
O           2.18405727641969   -0.18533856592734    0.60076927753280
O           3.12984312063447    0.92382498332327   -1.35845761727451
O           1.02031285272381   -0.30550797146546   -1.51114970893207
O           1.13749992858385    1.81362354296030   -0.33701016076748
H           0.19369329757742    1.58355802355560   -0.12875554160750
H           0.68405237284536   -1.08003058509715   -0.91138550050554
O          -1.41627675169752    1.31273173503069   -0.05968978940861
H          -1.86371940519365    2.15862284158632   -0.11864416602102
O          -1.23025855398006   -0.78803825754254    1.73988079849297
H          -1.51369125986128   -0.02793982300687    1.21233918338458
H          -0.54564691455281   -0.42615356322563    2.33611835469458
O           0.29100513383773   -2.10831194272407    0.07724756974374
H           1.11724756443428   -2.12579351676194    0.57266292698239
H          -0.37538556386088   -1.69220176731302    0.70052121690178
O           0.92785316639911    0.36598250657010    2.87738350254424
H           1.50459668492353    0.13529378602448    3.60671733945736
H           1.45355043055383    0.23861937887073    2.06114089169922
N          -1.79834463045345   -0.10873156955910   -2.25242193193332
H          -0.81496115957856   -0.22359326765353   -2.48032367146715
H          -2.16162954323071   -1.02343036427370   -2.01387621901867
H          -1.62076210378413    0.80342677919675   -0.90375863258767
H          -2.28285834953493    0.21831810236237   -3.07864010867664
