    23
        -45.36720901  Gyration_radius:  2.34495459117 Dipole_moment: 5.995
 S          -1.69007361808190   -0.36313269540246   -0.15284830956079
O          -2.37267856431052   -1.11228335592957    0.87651565144209
O          -2.51789596354038    0.10760634475956   -1.23418155197045
O          -1.22965092407887    1.02032898794788    0.61983771339707
O          -0.43370965483258   -0.94261441096765   -0.56924366107810
H          -1.16686355360211   -1.29866850015808    1.95283588098007
H          -2.07562723278453    1.38605551551329    0.85927452454819
O          -0.43797182515818   -1.40685188165873    2.61070539717458
H          -0.75960576672828   -2.05515045910190    3.23978301791186
O           1.56783459217514    1.70031500314924   -1.81963694872549
H           1.41136178570576    2.62986274297245   -1.99287140790278
H           0.80324202396601    1.22144269056477   -2.24081316600468
O          -0.51570109464649    0.51198201854413   -2.90854397740665
H          -1.30750765645930    0.45254527009465   -2.32961518531850
H          -0.22582166258590   -0.39916857718433   -2.99837834270849
O           1.59411191632324   -1.78051870598665    0.90579516389221
H           0.96320687977036   -1.81344111833705    0.16303446187844
H           1.00235150905872   -1.80685091090802    1.68737822204305
N           1.50117536595509    0.80877542528451    0.68158735798496
H           0.48838422160565    0.90294698092153    0.85265447575492
H           2.04253728828883    1.35349649556970    1.34425766023397
H           1.70719491864688   -0.25107609225411    0.76589585732301
H           1.65170701527829    1.13439922255033   -0.31342284388766
