    23
        -45.37495339  Gyration_radius:  2.36924119963 Dipole_moment: 5.692
 S          -0.00648375428147    0.02272952503259   -1.01103704656870
O           0.56594995165588    1.30437260285024   -0.54709675110204
O           1.03147605236943   -0.98231586094253   -1.11799904295806
O          -1.06728036376924   -0.40239520187794   -0.09780385732820
O          -0.61425272768975    0.25429284699156   -2.40981396387365
H          -1.02416037238224    1.17089812352501   -2.37266785312132
H          -0.41255448286196   -0.89269215273041    1.37858903549958
O           0.22605418151613   -1.19341885016814    2.06535646829560
H           0.51178487857774   -2.07401306718702    1.73979856319813
O           1.14988848895025   -3.10904667465895    0.45676984661274
H           0.60520797260908   -3.81301864710537    0.10176683591068
H           1.13259062696338   -2.39322160127620   -0.21673161388771
O          -2.98924340868237    1.42455223605635    0.02667395681593
H          -2.36338278009766    0.67066573645390   -0.01319774244905
H          -3.17898068923156    1.56721328437005    0.95512237622860
O          -1.42971317656922    2.61640795998225   -1.82348828126845
H          -2.17478494075669    2.38928481688692   -1.23348983930288
H          -0.63946887857881    2.60176307664340   -1.26261937833719
N           2.17841143739822    0.18219942898743    1.09877822495409
H           2.81092805746112    0.71510284480889    1.68707011321628
H           2.67458776640820   -0.48021020431919    0.50386442406159
H           1.41970478900556   -0.37890065264356    1.66015855499534
H           1.59372137202290    0.79975044036650    0.43199698040971
