    23
        -45.37539074  Gyration_radius:  2.30845168067 Dipole_moment: 5.227
 S           0.75934126856799    1.60545553980531    0.78691281255663
O           1.35093707656593    1.34021394381147   -0.51641366518768
O           1.69476447793031    1.81143025212569    1.84668879519556
O          -0.04499298906928    2.99000422937285    0.60809495281388
O          -0.30242217856885    0.63801406785649    1.08081893630671
H          -1.44153378450330    0.84758513555648   -0.09506059223494
H           0.46174081852767    3.62218828333697    1.10944164911489
O          -2.00891243435509    0.86894981185577   -0.90069502261480
H          -2.14228883704164    1.79938345788545   -1.08787246586230
O           0.38287081052558   -2.59259368126280   -0.41637706672058
H          -0.44542021084102   -2.51006703089469    0.10275174689800
H           1.07990236895647   -2.28156209651702    0.18610208800322
O          -1.78524642196711   -1.67660984372668    0.89279522062301
H          -1.28064305427643   -0.91344617234414    1.21348099869553
H          -2.48504603196540   -1.30758887796380    0.34838798510416
O           1.85329547282651   -1.02023707761553    1.27082741672853
H           2.62283036308231   -0.51713724786694    1.54396974363281
H           1.11003896189031   -0.40882602765834    1.36266962528801
N           0.12083647909044   -0.47016745181517   -1.90248400402928
H           0.37892395044818   -0.55353693470907   -2.87908897989122
H          -0.84625587880532   -0.11272631948242   -1.78244050275176
H           0.23676548526196   -1.40670322918397   -1.37243834397465
H           0.73051428771938    0.24797724943169   -1.40007133769407
