    23
        -45.38069775  Gyration_radius:  2.31467109349 Dipole_moment: 0.665
 S          -1.90851352067440   -0.29145541891346   -0.07333927679591
O          -1.46565114691419   -0.75998722650604    1.23162313923313
O          -1.25748551586735    0.95612668095927   -0.45094929595208
O          -1.80959137855862   -1.31304760559732   -1.09154722659607
O          -3.44512667336213    0.06883348141408    0.07149846148426
H          -3.83672260428247   -0.79087862196224    0.18500436254461
H          -0.24685971643324   -1.86946291418563   -1.44929164930820
O           0.73221156881848   -1.94206246365801   -1.48445775657034
H           1.02295986060485   -1.09330452537967   -1.85504798015338
O           0.98674657248966    0.79795317798670   -1.80595746064034
H           0.92071931375994    1.35427769359490   -2.58328796458239
H           0.11725480406273    0.86936569369634   -1.34368461009768
O           2.23319109168388    1.00482218896658    0.66926996235683
H           2.02561852211061    1.04559423420681   -0.27929750406812
H           1.56074173539706    1.56786265827857    1.10207083857398
O          -0.01464463005337    2.18938185425833    1.54778415046691
H          -0.55835371893299    1.71792360323869    0.88247463307026
H          -0.37432028376166    3.07496554897735    1.61066448491552
N           1.08032517274986   -1.33415352288043    1.04806269660861
H           1.06652451276970   -1.73852520132415    0.06331587379357
H           0.07116489031358   -1.10433029497931    1.26718706834837
H           1.46282687177575   -1.98476364831313    1.72456285713389
H           1.63698428231227   -0.42513537187458    1.01334218621457
