    23
        -45.35096065  Gyration_radius:  2.7165294094 Dipole_moment: 8.124
 S           2.74693252989115    0.68065854292084   -1.29717310038184
O           2.27098592398273   -0.31194298628982   -0.35099127231408
O           4.11458400309714    0.64987719130242   -1.64558286444859
O           1.84260140790634    0.59371390126386   -2.55363570759767
O           2.39742950032782    2.09108359012956   -0.73316725846892
H           1.55717216003909    2.01242631922296   -0.22728198719706
H           1.24477554996702   -0.21901803276723   -2.47895291058707
O          -1.64336997428205   -0.04732824289624   -0.83707046056314
H          -2.37599422042801    0.32727131373219   -1.32715055973910
O           0.40221520315354   -1.43015950070190   -1.96215386825485
H           0.99209160702555   -1.54761188634182   -1.20404969609761
H          -0.41239530039687   -1.01119366785109   -1.61720538089773
O          -0.85187243474828    0.40626472830912    2.98002316694780
H          -0.24465872949580    0.50949213882913    3.71354648827487
H          -0.41777766092103    0.80698852729289    2.20404054115116
O           0.31601054740403    1.15300461068253    0.59463586602174
H           0.97302443381243    0.43485361020518    0.49679851033160
H          -0.43784710322638    0.88528308275202    0.03107007462307
N          -2.55454273111201   -1.26286892030899    1.31353925717150
H          -2.03344898510693   -0.54302702499054   -0.04748256614548
H          -2.29838814416637   -2.23950646434936    1.38870531807992
H          -2.04572170337650   -0.75431702622975    2.03633608844993
H          -3.54180587932376   -1.18394380387750    1.52320231163469
