    23
        -45.37769839  Gyration_radius:  2.30169504231 Dipole_moment: 2.526
 S           0.86830438529459   -1.26629155966368   -1.05397139018599
O          -0.10972748822036   -1.86348266767254   -0.15193111821386
O           2.19686677818389   -1.22205339404565   -0.48849021998985
O           0.95441993218337   -2.23438582098188   -2.31194724526824
O           0.41038776165235    0.00754139745037   -1.58698514824953
H          -1.33155374207827   -0.19174993683234   -1.65036789305405
H           1.51717882426834   -2.92660595992912   -1.98218559093381
O          -2.13608792348759   -0.50627066421648   -1.19322951410344
H          -1.79555762117751   -1.30213403266571   -0.75138842701555
O           2.18760685404160    0.35897559025858    1.62132652239353
H           2.95580404599132    0.11756394863103    2.14162394653645
H           2.24651043586525   -0.17054322162144    0.79463035421898
O           0.14445962733216    2.44824453332404   -0.59925146776346
H           0.40933644762375    1.56750578148859   -0.94395846898074
H           0.12623434369891    3.03235467739340   -1.35861186580530
O          -0.29225413805659   -0.48209444164028    2.10735631725837
H          -0.25155109173728   -1.14173340794787    1.38181670165212
H           0.60975328533252   -0.09280417948903    2.11762783595139
N          -1.77041940945118    1.19973238102060    0.79590829725426
H          -1.19755369749847    0.56150972516231    1.45785614710028
H          -2.11219666204456    0.56416547277913    0.01655376064219
H          -2.52861389752088    1.66914624719303    1.27661870162614
H          -1.10134706015799    1.87340952199525    0.36099976500267
