    23
        -45.37922911  Gyration_radius:  2.27239988071 Dipole_moment: 2.395
 S          -0.52986726839564   -0.28673639399128   -1.77703604837608
O           0.08630269764243   -1.05545538189565   -2.81732668500231
O          -0.59993110452189   -0.96427413087148   -0.48843866984907
O           0.01662616669958    1.06178809070225   -1.63357238723908
O          -2.06840996056282   -0.08114463917928   -2.18092852672206
H          -2.03802112261490    0.01006623915756   -3.12833750191515
H           1.58565423192821    0.37534528650915   -1.46627875203392
O           2.23299115988213   -0.30462501546064   -1.19732627279562
H           1.97624043226412   -1.06993587574326   -1.72257263940989
O          -0.16158867752232   -1.69794235864799    2.04021673862788
H          -0.92330688602856   -1.22593214557976    2.39229910565423
H          -0.33470259557658   -1.75710205170071    1.08349879393230
O           0.01038330919816    2.01031247113661    0.83572700326733
H          -0.84157698093563    1.63206815234921    1.12811789064743
H           0.02210554816443    1.84084705149969   -0.13312588241541
O          -2.17220872947925    0.41613588926763    1.08642795456163
H          -2.97031751531096    0.67069030269211    0.62134805040279
H          -1.65818147396962   -0.12877818690499    0.44609448086632
N           1.70115307029139    0.10694590504770    1.40550519229044
H           2.49139800458579    0.30477996965192    2.00886050478694
H           2.01837253055443   -0.17393485916969    0.44471267836300
H           1.08490427711520   -0.65581540956573    1.78995963171958
H           1.07198087658985    0.97269707069720    1.26217533063651
