    23
        -45.36606635  Gyration_radius:  2.4738553809 Dipole_moment: 5.061
 S           2.09992776470046    0.35170247169742   -0.70438509764007
O           1.26606636555583    0.09116370152116   -1.86323857372615
O           3.50046449684434    0.49076755000029   -0.93589233371197
O           1.61180589230770    1.80857921620733   -0.16940231931388
O           1.74999233550447   -0.55613711771247    0.39674428264782
H          -0.28406859616561    0.11593358857466   -1.88938301407252
H           2.46800268521216    2.17903658652135    0.01329986886982
O          -1.28472673346848    0.08552323013949   -1.82434626211679
H          -1.59292134143951   -0.15818260880988   -2.69797929143431
O           0.86175715838628   -3.16282147345787    0.64815953937168
H           1.38899148421908   -2.35209629117311    0.54721307202689
H           1.48808173162085   -3.88396860069693    0.71650180575978
O          -2.01071977985034    0.93223159019786    2.06765866014490
H          -2.93144920371982    1.13557268147074    2.23508540597505
H          -1.70843900821996    1.56074798563518    1.36683129744525
O          -1.16352796659862    2.25171374881412   -0.07532315666546
H          -1.37898377977532    1.64455614956744   -0.80061603870423
H          -0.19732037572568    2.28668963349167   -0.05678309566464
N          -0.80506308915186   -0.97469815436530    0.61697518445658
H           0.22635560708961   -0.69314000673535    0.58697724275183
H          -0.80491977862797   -1.97681345355159    0.81222153646150
H          -1.30845304482330   -0.40806747939393    1.33292967280784
H          -1.19085284388174   -0.76829293793030   -0.32324835567026
