    23
        -45.36888421  Gyration_radius:  2.42325737905 Dipole_moment: 2.750
 S           0.31696464254712    1.72087701844752   -1.24234077800591
O           0.72028537387786    1.22194884798715   -2.52860037871201
O          -1.11629085886808    1.97147358078802   -1.13493371294656
O           0.77504425713963    0.88463487792491   -0.12813999741763
O           1.04728674404057    3.11821736117574   -1.04277061264704
H           1.17845936339872    3.43012110575793   -1.93344617854584
H           0.15816291141401   -0.46486706287450   -1.02264338893455
O          -0.32874643132441   -1.14189153323350   -1.52619907378876
H          -0.23505621939980   -0.84967073226145   -2.43791211380231
O          -0.64406585183496    0.20020054112297    2.08106873193438
H          -0.23190476187777   -0.67022169401640    2.28882730961453
H          -0.01628892266029    0.63525387769515    1.47505116882303
O           0.69516959514637   -2.09752609500765    2.34587041614711
H           1.25940042203216   -2.20059320689468    3.11337749692530
H           1.29744024982274   -1.93069146953077    1.58466546036978
O           2.22190154909090   -1.39196252375915    0.25173825610954
H           1.91345450222797   -0.47328360054157    0.16099388017965
H           1.89113284913432   -1.85382211904320   -0.52357632924441
N          -2.22575155041863   -0.04151636796129    0.04798203771214
H          -1.80623986009206   -0.79084642881050   -0.52947789309891
H          -3.23241073460680   -0.12306586183086    0.13110031649235
H          -1.71492908736180   -0.01864049414586    1.00180403012280
H          -1.92301818147013    0.86587199904595   -0.43243862727698
