    23
        -45.37401942  Gyration_radius:  2.29360821066 Dipole_moment: 4.623
 S           0.15550221786743    1.74701340656324   -0.86138469108834
O          -0.89932861096167    0.98328506578596   -0.22703572845247
O          -0.04124345177660    1.99561648897920   -2.26300262107875
O           0.15791235004203    3.16553780360543   -0.13458152410587
O           1.46951484150250    1.15033418453691   -0.56572002902771
H           1.57914624867708    0.12326491169097    0.63641464822758
H           0.50874052453922    3.74866656191129   -0.80067655203225
O           1.65340009533048   -0.62222675555732    1.29763474155314
H           2.59332520049996   -0.76644152417985    1.41747998873131
O          -0.77593749464398    0.38031255181949    2.39272309287119
H           0.11569156923811    0.01715181684135    2.43667920582690
H          -0.80218667266262    0.85854638886316    1.54270708009803
O           0.61806514233396   -0.65540449262562   -2.28646353002759
H           0.05243410576267   -0.04681575420170   -2.77668439240483
H           1.16085904933156   -0.04473159448456   -1.74846374960068
O          -2.38629064495522   -1.04979264169906    0.79527913535322
H          -2.01869130151284   -0.67639424163612    1.62612019100308
H          -2.38706522533787   -0.28375580071427    0.20357462220844
N          -0.15043343397062   -2.03641642349607   -0.13877380449984
H           0.02750847487568   -1.57115855219600   -1.06927344881643
H          -1.11390231863308   -1.71741847988272    0.22628882976805
H          -0.08963957147955   -3.04591059189573   -0.21401791996919
H           0.57261892662983   -1.65326236183732    0.51117647908477
