    23
        -45.37796989  Gyration_radius:  2.3387134763 Dipole_moment: 4.758
 S           1.09986558637753    0.64420354818611   -0.20960540556515
O           0.41536914364421    1.24539757039023    0.93512785660165
O           0.33436596126073    0.82565439026095   -1.44007200113621
O           2.47284260170302    1.37193030831709   -0.38595023998026
O           1.40894139988878   -0.75385791780985    0.04026013690372
H           0.94964091374759   -1.28736123963240    2.05659401868802
H           2.24045733578285    2.22734260922659   -0.79843778767460
O           0.21582031487086   -0.83867391560382    2.49441442664712
H           0.27735477416274    0.06993933638655    2.11474599408902
O          -0.19740501509620   -2.58783545816557   -0.88660154545480
H           0.44390552947420   -1.86410612189687   -0.67504426178686
H           0.32347008357196   -3.39082003698104   -0.93790103962264
O          -1.96725752413184    0.86030864775214   -0.11366007671639
H          -1.31519764685402    1.27026135564417    0.48803057259120
H          -1.44258378415462    0.78842083315160   -0.93069952778893
O           1.27985361315702    3.22633417736664   -1.85963933000966
H           1.60294567717253    3.32080234978700   -2.75839006064338
H           0.72253417949524    2.41918482677382   -1.84903626285499
N          -1.80375711357173   -1.53341203418657    0.95438638981590
H          -2.02702103614783   -0.58856732961121    0.50393214329074
H          -1.33114190896221   -2.11499744817272    0.22247343119022
H          -1.07121722766971   -1.32872821743227    1.70517800373113
H          -2.63178586772122   -1.98142025374179    1.32989458568393
