    23
        -45.37886620  Gyration_radius:  2.31206293082 Dipole_moment: 5.421
 S           0.20478160768658   -0.63257480389842   -1.02666455123211
O           0.95672269750906    0.56671743957276   -1.36919869221778
O           1.06135349545272   -1.74688503190623   -0.64976465666224
O          -0.74441879317602   -0.34501889879297    0.06307633874126
O          -0.62460784014393   -1.06369411231107   -2.26095704736221
H          -0.90994036744565   -0.19718767607590   -2.67624535557584
H          -0.83257752907881   -1.11224231255107    1.53252063977930
O          -0.67515735537270   -1.60728769757780    2.37155137687357
H          -1.00145215121427   -2.49474675878314    2.21272107380367
O          -1.06558884411159    1.37880538450359   -2.94859600463280
H          -0.14596074317730    1.50748802108859   -2.67288707812961
H          -1.59481230752734    1.70861935074065   -2.19333293556277
O           1.42754119560246    1.51398308004146    1.01299546704028
H           0.55724336176542    1.82963534717274    1.26998438618274
H           1.33992549551939    1.27831539881154    0.05675123745263
O          -2.15829839613166    1.79703473770231   -0.50916620423414
H          -3.07787411470946    1.57720609483466   -0.35123011907078
H          -1.63680664694086    1.01074722215509   -0.23025062881851
N           1.81899949208665   -1.00331745930540    1.70428010327377
H           0.97300852005865   -1.30467764549108    2.24527974110660
H           2.69220481720001   -1.30755725823864    2.12020767269077
H           1.66408208798483   -1.40332811316016    0.72226016525213
H           1.77163231816044    0.04996568147087    1.57666506132720
