    23
        -45.36263934  Gyration_radius:  2.35944159917 Dipole_moment: 10.349
 S           0.47852449469361    1.50103987996184    0.27205173394426
O           0.39130854781722    1.29889302420740   -1.18320448541313
O           0.95080886867486    2.78331736465515    0.66515625670876
O          -1.00069266704047    1.33821261481363    0.82249678028791
O           1.21626524727041    0.37070630752838    0.85993014088043
H           1.88818587496309   -0.88957486405364    0.09636075076990
H          -1.29584108456107    0.42869286143854    0.63660588464769
O           2.14255316759225   -1.69168099344760   -0.43061437806162
H           3.01449476973160   -1.50428222599599   -0.78112799730532
O          -1.76546437399843   -1.26379109538846    0.46319642083771
H          -1.07655758904133   -1.53981347537770    1.13296314314615
H          -2.61704624850872   -1.36587372165933    0.89130571913523
O           0.20352413228717   -1.70570046446377    2.09904192430758
H           0.61312028126488   -0.84690924330122    1.84424959725343
H           0.84406380192095   -2.37402379531284    1.84282484586868
O          -1.28203978911152    3.81566841765545   -0.55743082772610
H          -1.84335806512813    3.30460964027305    0.02889404689989
H          -0.38368889954812    3.65576529041635   -0.23848108461523
N          -0.11304260622357   -1.09871342948918   -1.72152046859973
H           0.08142950477651   -0.00069845068245   -1.55700845165764
H          -0.89899195063837   -1.35260369082412   -1.11026877316410
H          -0.30957394718358   -1.30387117830470   -2.69424359836675
H           0.76201853001590   -1.55936878268305   -1.38117715977927
