    23
        -45.35194770  Gyration_radius:  2.4708544705 Dipole_moment: 2.498
 S          -0.42524725314796    1.36389185860481   -1.75980124168336
O          -0.39709103946020    1.64528063223462   -0.35316292718204
O           0.80924481295030    1.01276840010564   -2.37126234012471
O          -1.51523256953788    0.32253259643826   -2.05770562965284
O          -1.00933315970489    2.61776807270552   -2.49449745444483
H          -1.74955162382450    2.91955113232754   -1.97202942212965
H          -1.26687560695813   -0.56991514769375   -1.60160505524824
O           1.67512154871387   -1.17050035403034   -0.94143053488740
H           1.64839540447559   -0.45413020661506   -1.59269178071637
O           0.02837463751160   -0.61572918676587    3.35579654100488
H          -0.66726048738349   -0.42245236201978    2.69469378737673
H          -0.31048495373000   -1.32589751139414    3.90163669046455
O          -0.76893156242067   -1.78572117971187   -0.91448099469698
H           0.25233112135390   -1.61509906185762   -0.87674228418910
H          -0.89174322341113   -2.57054078124305   -1.45276765590691
O          -1.67679051319532   -0.19927701042635    1.26706451007496
H          -1.27122295692717    0.56111476240874    0.82421141685821
H          -1.49495720448918   -0.95438556831347    0.69461011738205
N           1.84171085985261    0.29729073461472    1.23071229993026
H           1.83954656998585   -0.70593344061963   -0.06087874787048
H           2.71404732293045    0.72453424209214    1.51390027849749
H           1.22236885237917    1.03385733012825    0.90676467367450
H           1.41358101476113   -0.10900795206870    2.05966575326973
