    23
        -45.36872764  Gyration_radius:  2.41333423204 Dipole_moment: 2.825
 S          -1.89244293177321    0.43747571981525    1.35558415457732
O          -1.36259387353220   -0.91369499378618    1.54936189204459
O          -3.20619367041215    0.66770630217290    1.85799006769932
O          -0.90061076816639    1.36043949995784    2.21875559161002
O          -1.69633267482113    0.85291019844789   -0.03945839591457
H          -0.15995016854027    1.65007450751743   -0.23484134551694
H          -1.44783542071412    2.09421928378278    2.48055671942957
O           0.80387492103533    1.79508433787493   -0.24226657239479
H           1.13749047619402    1.17538948154674    0.42686589454706
O           1.76250467412630    0.69893476207802   -2.44468181797784
H           2.56069990654365    1.15923712203386   -2.70513819093230
H           1.37643508250622    1.21684037451434   -1.69264256941929
O           1.56399830448626   -1.58110020333150   -1.11485316119472
H           1.76105626095302   -0.81021208591693   -1.69822715196128
H           1.71045842423329   -1.27026187230415   -0.20620335857563
O           1.21917715510256   -0.42911806372204    1.38284482341500
H           0.25946720042801   -0.61807161870189    1.50434590881002
H           1.56456523278062   -0.27751460839905    2.26361548089936
N          -1.02177021796410   -1.46775257529591   -0.96949510383887
H          -1.22210340785370   -1.72528197074212    0.01844859617210
H          -1.57864292477416   -1.98964234516678   -1.63696823482777
H          -1.27964547286263   -0.44576385149104   -0.93997402050023
H           0.04839390306133   -1.57989742060574   -1.13361920618673
