    23
        -45.35960264  Gyration_radius:  2.41187664306 Dipole_moment: 3.236
 S           1.44376984631010    0.33060601474621   -1.43628783264978
O          -0.01299484768972    0.48965826176630   -1.45698958808634
O           2.13308705925760    1.44385682416923   -0.86301826971214
O           1.78237886733336   -0.96476266530481   -0.82403734339104
O           1.90271935388374    0.19858288634750   -2.94345132621175
H           1.60654913072722   -0.67327045468306   -3.18593115124676
H           0.79027871609753   -1.53738145427085    0.02204358001872
O          -0.66298793117078    0.60712614738502    1.10318100170021
H          -0.50970575148014    0.79464341336636    0.15018414012963
O          -0.08051295380093   -1.78767529670952    0.57167856984600
H          -0.80015238876401   -1.88907787645354   -0.19200393344919
H          -0.33770377338936   -0.86867659831442    0.98622868012380
O          -3.24761008988879   -0.26576418330840    0.53569943299021
H          -3.71611580717942   -0.59082107184077    1.30536427119953
H          -2.48781746858848    0.24235726187037    0.86067050211556
O          -1.71653211742410   -1.54222419937714   -1.31178003664119
H          -2.48577625006188   -1.16930432022284   -0.83969093796937
H          -1.19919765226087   -0.76084067444586   -1.60542859806078
N           1.61096635514808    1.62845323853457    1.90877835977485
H           1.94474215277962    1.65045717024125    0.94120388474785
H           0.11724635678923    1.04217875670219    1.56277588168202
H           2.25292412656299    1.05106957629707    2.43738615888410
H           1.67244503677634    2.57080926348297    2.27342455425908
