    23
        -45.35575855  Gyration_radius:  2.34500625668 Dipole_moment: 4.797
 S           0.37661948167009   -0.95267129397302   -1.83410074877083
O           0.85793344526739   -1.74766153641749   -0.74772073582185
O           1.24712583682298    0.01222291721100   -2.41516718786741
O          -0.04711004315723   -1.95441619952418   -2.98135134450764
O          -0.94782769948388   -0.29596179806278   -1.44128454211216
H          -1.32651836652969   -0.86770412605822   -0.64426467687364
H           0.01679705892375   -1.47981390215707   -3.80723616448531
O          -0.79130676340497    0.02678846048150    2.28888866417433
H          -1.23352609017059    0.24564332113989    3.10976404968010
O           1.88910094473241   -0.36131501917544    1.43642288390883
H           1.05413893198528   -0.25802780247662    1.91559717891995
H           1.71322016705706   -0.99595619236687    0.72907755909792
O          -1.54188755935995   -1.73653585810951    0.49659480451906
H          -1.34526263904255   -1.13429321274327    1.26287611453918
H          -0.74070476066399   -2.26399141175073    0.37271602935271
O           1.70360734216058    1.76686848868394   -0.27374678919533
H           1.98493819756495    1.11421345491480    0.39606501278697
H           1.69460592841639    1.29461052979073   -1.11560129173724
N          -0.95695491368496    2.01181339145187    0.60659233621963
H          -1.26554378899257    2.93987627930237    0.86676729901547
H          -0.86729998360857    0.84239518367050    1.68274976198510
H          -1.49425904446134    1.71171104827565   -0.19798586506043
H           0.02011430796114    2.08220529788546    0.29434766223030
