    23
        -45.34804470  Gyration_radius:  2.38520004762 Dipole_moment: 2.838
 S           1.08184517027894    1.30840538126068   -1.24135003570678
O           0.32327722542119    1.79099280166417   -2.34979475496424
O           0.78633976893603    1.85161393570834    0.04690723273874
O           1.01675055456028   -0.22014344027927   -1.21948079702498
O           2.60734517942791    1.57423345896822   -1.50808956509172
H           2.76773341030032    1.44353189438079   -2.44064734224630
H           0.00526588901934   -0.42030337347615   -1.51383677541175
O          -1.82138547172616    0.83382796918938    0.31151194122228
H          -1.06386290882652    1.43209841081508    0.33593483778225
O          -0.30802699347204   -2.72164745719361   -0.21702647461252
H           0.49895111315520   -2.21306456163596   -0.33745811814837
H          -0.93762520516743   -2.38324476083589   -0.86018049127879
O          -1.36445555599404   -0.42682135740472   -1.82951769802876
H          -1.69740227072864    0.04409882103038   -0.97181289694165
H          -1.42135986791045    0.23964257593487   -2.52251027604874
O           1.55415053825627    0.41610308973082    2.24688945852630
H           1.92583459743735    1.04518939554890    2.86763597270817
H           1.32103803098732    0.92623179131382    1.45423431806370
N          -1.05115003518969   -0.97868163522099    2.03973910583602
H          -1.55615371740712   -1.24223623704180    2.87528842821912
H          -0.13562089241508   -0.63132505177105    2.31613110429939
H          -0.89760697977678   -1.81615050537946    1.48243381465254
H          -1.63388159925412    0.14764885471377    1.03499901186026
