    23
        -45.36424807  Gyration_radius:  2.41715047895 Dipole_moment: 5.562
 S          -0.03863675509953    1.27979722804747   -2.16145834429737
O          -0.04102073566889    0.11035805938524   -2.99678611595359
O          -0.14796414088169    2.55085975987910   -2.80202944712015
O          -1.41932830668173    1.16945086067207   -1.26229114433238
O           0.99480131930434    1.21187913973959   -1.10891911809209
H           1.02855912828632   -0.40401476243987   -1.01263665522410
H          -2.00321564813316    1.62491485820267   -1.85950521088634
O          -0.88532310409269   -2.02275225977350    0.82242553831690
H          -1.44163767567266   -2.74183920030933    0.52190063755621
O          -1.80296143342795    0.47360281744535    1.37309024415286
H          -1.90060402223603    0.77554804722961    0.45531768306990
H          -1.63436193279781   -0.48688248838439    1.30193649668284
O           1.69109682264129   -1.31800911104643    1.72981697618483
H           1.95427416753300   -1.48605687904979    0.81570040497260
H           0.84483208415118   -1.77693732610547    1.82951869409843
O           0.90334376907535   -1.38213456916041   -1.01596031755386
H           0.59775850008526   -1.51411419647833   -1.92291900328715
H          -0.28081517199088   -1.79815501204236    0.06708529332183
N           0.72873933118463    1.17045744552601    1.47179936183765
H           1.07335622118856    1.95367462569885    2.01452363060050
H           1.22823157845264    0.27401092366436    1.70637641756534
H          -0.31424633869666    1.00413157209828    1.60492561242640
H           0.86512233345017    1.33221046724237    0.42808836591997
