    23
        -45.36566759  Gyration_radius:  2.29257544898 Dipole_moment: 4.962
 S           1.46087356256511    0.59622969341644   -1.04853085259668
O           1.44315758203485   -0.66883042458691   -0.27650680942732
O           2.66076643259636    0.80298196341040   -1.78175644715278
O           0.22399451903519    0.51257912806550   -2.02246798351347
O           1.09737827302236    1.70689410068047   -0.14801626429736
H          -0.52885778654472    1.57717992995396   -0.02015082754990
H           0.14190445816047   -0.40092924340387   -2.37602300896583
O          -1.08590856990993   -1.34401494106770   -0.03592021112828
H          -0.11038981105036   -1.22709683564630   -0.09806266011120
O          -0.54549808111558   -1.94000435950082   -2.65865251274915
H          -1.32314454389583   -1.91526150242315   -3.21963461678802
H          -0.85938232626692   -2.02830783538592   -1.73791317822834
O          -1.24135473946907   -0.14716011209107    2.43034107101810
H          -1.61167137340116    0.60865437799858    1.95136541506664
H          -1.30906469326860   -0.88168025863293    1.79082337520885
O          -1.49050562120940    1.39816807124836    0.12220594525186
H          -1.43806996976621   -0.45111916873805   -0.19768801691492
H          -1.94162905950639    1.90649080678871   -0.55275633818540
N           1.31100470881997    0.38047700787586    2.03400165042208
H           1.28086147254603    1.23807033351778    1.42369752127065
H           0.32686061495622    0.17569277931524    2.38536129446896
H           1.53217529248099   -0.32239705710359    1.26639695140448
H           2.00649966906715    0.42338352658890    2.76988649355472
