    23
        -45.37021371  Gyration_radius:  2.5128379152 Dipole_moment: 3.555
 S          -0.43265884137216    1.44819558002292    1.59682221065043
O          -1.26961129160991    1.25442173155073    0.40736789393412
O           0.39515292565621    2.63019902407085    1.49674973498089
O          -1.44147857252275    1.69680698415952    2.80362964993653
O           0.30054507524550    0.24196111024180    1.92305367756017
H          -0.86560321198995   -0.95144596992899    1.58374159754128
H          -1.70024592631477    2.61160957485406    2.72827491802024
O          -1.57569967453865   -1.39871197885955    1.07600226195466
H          -2.05567752465898   -0.65661788803654    0.68842525564973
O           2.44012213655476    1.35682077018274    0.44057986175533
H           2.51923147820561    0.70426799917497    1.14331768370535
H           1.81083210123377    2.01709075904567    0.80923991814118
O           0.00901721813915   -2.39936996165214   -0.74424162294811
H           0.56458255284554   -3.03715715006418   -0.29401799575032
H          -0.68707788057159   -2.13037120106410   -0.08069703559782
O          -0.11359238487258   -1.20126819353971   -3.36096718794058
H          -0.66279931455594   -1.53031544523743   -4.07304395860960
H          -0.18266759939028   -1.83839292017533   -2.63694197965186
N           0.60323057628661    0.24345550808061   -1.12231820372421
H           0.55505724750339   -0.77898565028159   -0.92514171684415
H          -0.23114452864896    0.69158628805284   -0.64868039877732
H           1.45789328819066    0.67171286896714   -0.67478920624088
H           0.56259216098095    0.35450816048313   -2.13636534741606
