    23
        -45.37623415  Gyration_radius:  2.39686713596 Dipole_moment: 1.818
 S           0.78885500694627    1.47478639143662   -0.87479866610622
O           1.39955268346165    0.99851469836298    0.35979758427017
O           0.95847448851182    0.56396131423823   -1.97963979833626
O          -0.60766901459435    1.84166699586801   -0.65109913889957
O           1.54899669623216    2.81040156134591   -1.26137802346836
H           1.48499504498534    3.34861191450531   -0.47724488895491
H          -1.38752296056430    0.43992871408301   -1.19554123981181
O          -1.59066166321054   -0.50083121385561   -1.38155303190316
H          -1.14320103018111   -0.68401808888362   -2.21243788016164
O           1.81849359942999   -1.95071413446859   -1.57216930108793
H           2.66586726886344   -2.08191282954213   -1.99826212798579
H           1.54834790712326   -1.03472657907300   -1.79009603220133
O          -0.92526162454596   -1.11699819818396    2.88503777122809
H          -0.36936208632006   -0.83287334668363    3.61213853927457
H          -1.31802223925668   -0.29611633486840    2.51157621710441
O          -1.80993031666037    1.08988795559003    1.62255424322534
H          -2.70101202160803    0.98327457736715    1.28307352276817
H          -1.28646433887864    1.43069894484085    0.86836954249068
N           0.18452048812195   -1.32807764857399    0.46560613770144
H          -0.61093277208809   -1.15102943402205   -0.19851513855819
H           0.80004727339354   -2.03327769672469    0.04826260671289
H           0.73258925289973   -0.42490919955818    0.51870167161335
H          -0.18069967206106   -1.54624836320672    1.41761742109431
