    23
        -45.37198076  Gyration_radius:  2.45481219084 Dipole_moment: 2.027
 S           1.50244536920652    1.46692515019324   -0.29416314604142
O           1.44693966310186    1.85362873001359    1.09947185162765
O           2.19579609134927    0.19992841051055   -0.49321593863535
O           0.19156679794888    1.47844951241250   -0.92906686392812
O           2.35484769103739    2.56840384040576   -1.05212040864305
H           3.19649174842589    2.51312727841871   -0.61028004667213
H          -1.06894978066286    1.60412989428795    0.17792752846275
O          -1.52208466733365   -0.52851568099060   -1.32131849469699
H          -0.88951086415404    0.20430716328524   -1.46684788319502
O          -0.76237424308236   -3.31265157461210   -1.34277532762967
H          -1.18647772957336   -2.49032862418030   -1.61986700539953
H          -0.82572359916603   -3.91600161162255   -2.08385494458326
O          -0.10677200399907    0.17637495421180    2.44461013537710
H           0.57818740922201    0.81929907573104    2.15982835169490
H          -0.93297716791465    0.56811429984701    2.10747326884180
O          -1.83097329012541    1.50953054432198    0.79232194639285
H          -2.21877897817473   -0.13785701611005   -0.78275951055383
H          -2.02957640217868    2.39563724599664    1.09794638789298
N           0.38592466875538   -1.42465038034298    0.43517339274319
H          -0.41551989916771   -1.23621230007926   -0.20403422794202
H           0.53288938326691   -2.42962810893482    0.47848867806999
H           1.22154709562829   -0.91304817116847    0.03017182380981
H           0.18308269759056   -0.96896259159392    1.37689044300727
