    23
        -45.37288308  Gyration_radius:  2.30124111294 Dipole_moment: 7.069
 S          -1.47553580999402   -0.96461911283188    0.88832161539222
O          -1.42362194793984    0.46592610556115    1.18184903113592
O          -2.40024650753900   -1.71874967912754    1.66726066854516
O          -2.07548891822485   -1.03419402103466   -0.62704264379749
O          -0.13203984694702   -1.51400892323578    0.76700674601419
H          -1.07516301435068    1.23411696322198   -0.18028973303753
H          -2.90104222584612   -1.43879306246954   -0.38572637138718
O          -0.84744903922388    1.58273585614253   -1.08071336454071
H          -1.49506438411014    1.18041210384232   -1.66328764727302
O           2.08507844417318   -0.04337330523306    1.13967922858209
H           1.39149685345564   -0.73179051912178    1.17419470672548
H           1.73435930566080    0.67867648285778    1.69895218434563
O           0.55956089237971    1.78092883540655    2.38646806765313
H           0.36855129077416    2.70849541365426    2.23925159071030
H          -0.22629886619682    1.28988906001713    2.07162997460779
O           0.43191602690625   -1.90991734297759   -1.75498826919085
H          -0.44468134996606   -1.88198152928324   -2.14553768045159
H           0.26715796077789   -1.92624231690351   -0.78193810905326
N           1.55473600793103    0.46796449126423   -1.34612127451246
H           1.89602438242045    0.32611519388704   -0.32612768546125
H           0.67829779007789    1.05072598175943   -1.30554405949398
H           2.26827702898044    0.88223770226773   -1.93408723909202
H           1.26117594679791   -0.48455436766437   -1.68320972641598
