    23
        -45.37041531  Gyration_radius:  2.44689722483 Dipole_moment: 3.297
 S           0.82729675635757   -0.08213477922029   -1.96915596660568
O           2.01827330764070    0.67634707561702   -1.65204341564427
O           0.70310891436878   -1.32119744996100   -1.22229641224098
O          -0.39073323153050    0.72264268845600   -1.87021763274158
O           0.97134406454825   -0.50437762000632   -3.49646797897783
H           1.46971449396053    0.21827872563647   -3.86533732544172
H          -1.41181923313973   -0.11270962445680   -0.91563887883599
O          -1.75118366524367   -0.73275161087978   -0.22122889381611
H          -1.31751975596720   -1.56127203160551   -0.45573093977734
O           0.76275549841965    2.24567664102531    0.02403999389261
H           0.03623911717132    2.17841462939543   -0.61336263058369
H           1.49102897833715    1.80533810747328   -0.46450514200297
O           1.93449930338782   -1.45547432475196    1.09700646650222
H           2.19364828112888   -2.36619741459549    1.24234266120751
H           1.60404425983803   -1.40893831516495    0.16912734022312
O          -2.70012653716399    0.14019432120022    2.35298425443610
H          -3.61034718982215    0.34358580626034    2.57039068031430
H          -2.70227095381333   -0.19922727860428    1.44753982263825
N          -0.01962853424199    0.28701962186099    1.60149659800073
H           0.77650277394687   -0.37435570024466    1.70280776236453
H          -0.50176249825770    0.48343199962767    2.47619786392410
H           0.33130135522534    1.16910629314780    1.11830375986206
H          -0.71436550513362   -0.15139978018392    0.94374801330295
