    23
        -45.36728174  Gyration_radius:  2.28732990001 Dipole_moment: 6.287
 S           0.29710362656045   -0.54110515885023    1.94459234255343
O          -0.69248209827009   -0.20282156721004    2.92332523137408
O           1.47714656093873   -1.21985472739768    2.38818594191571
O          -0.46017463881594   -1.63691743058039    0.96614529968786
O           0.57084720922274    0.55970690522971    1.00826801789075
H          -1.09651357690433    0.79929158595225    0.96749111842972
H          -0.56207788527854   -2.36949252847082    1.56615429499014
O          -2.02912388658728    0.86274206461584    0.67834015201916
H          -2.51558879248754    0.44059807234493    1.38982555411085
O           0.27717649682504   -1.60488748783114   -1.67046828408766
H          -0.12343508442064   -1.88869559526926   -0.83388519591946
H           1.19716187977058   -1.37579861263759   -1.40243032972303
O           0.66293417422014    2.47278695455847   -0.86664719091675
H           0.83855265652563    1.84062621948735   -0.14420194533670
H           0.30532399762541    3.25631056829269   -0.44426422912411
O           2.41320229985755   -0.88216264429254   -0.26317286316481
H           1.83913227438974   -0.26396204092636    0.22530901992044
H           2.74637947029445   -1.46639839168387    0.42377878377885
N          -1.04780856083881    0.64773484914129   -1.79950529760919
H          -1.64283903202851    0.61885367636486   -0.94064069964139
H          -1.59936674007571    0.79691983359863   -2.63701558548271
H          -0.36491019582788    1.43044067967535   -1.63271936852024
H          -0.49064016470053   -0.27391524412241   -1.84646477715011
