    23
        -45.37882873  Gyration_radius:  2.32799194055 Dipole_moment: 3.295
 S           0.25424036424657    0.72698479437680   -1.74103375342470
O           0.81505644812457   -0.58886887059338   -2.02597790625421
O           1.11502836330072    1.50615170111354   -0.86734688384583
O           0.19377993164931    1.50095592859265   -3.12476792008212
O          -1.12192716380649    0.65623754882793   -1.28089498769062
H          -1.47429922639900   -0.98542941627988   -0.98190351055407
H           1.10504663701444    1.58955987323730   -3.38752534552742
O          -1.20313450220699   -1.91689660341354   -0.83527060846306
H          -0.46277250861855   -1.99697017596142   -1.45479694792233
O           2.21981220659032   -0.67542572982523    0.17961403163430
H           1.88567299829137   -0.88020140929388   -0.71952658122158
H           2.16012636044461    0.29287507351981    0.18139612688442
O          -1.02867092665577    0.48507725626409    2.68717437647958
H          -0.91367106481234    1.23137864940119    2.03465302564930
H          -1.96129399040244    0.48004571917594    2.90805690592089
O          -0.84259167501515    2.27509684819718    0.78821975986770
H           0.06824220951710    2.34680217138585    0.46442755488416
H          -1.26810630691756    1.78853218524908    0.05835032583092
N           0.08941503543669   -1.58365317643972    1.44442590785762
H          -0.50959067537396   -1.81296247565917    0.59299480277537
H           1.02112373809267   -1.23789484702165    1.05913511364543
H          -0.36491412021781   -0.80134966857932    1.98955112453809
H           0.22342785770694   -2.40004537628248    2.03104537901466
