    23
        -45.37150282  Gyration_radius:  2.28933094762 Dipole_moment: 3.576
 S           0.40591226562242    0.80900965846854   -1.21441191763426
O           1.43709912593056    0.30527983733635   -0.29161071937623
O           0.45455378422393    2.23682080895122   -1.35885002430678
O           0.65776342396475    0.13811873790600   -2.59383394783312
O          -0.92191369009745    0.35496224045820   -0.75180964216250
H          -1.16745263662907   -1.10079412025041   -0.24482710808201
H           0.69417480214941   -0.82881915930670   -2.40284216389607
O          -1.27714500506575   -2.05208168666509    0.04353409382252
H          -2.21664987233498   -2.23539135794488   -0.00370872409578
O           0.48611706014331   -2.43574241575172   -1.99766181092217
H           0.01918968884273   -2.89853486011938   -2.69653368995998
H          -0.09305658022810   -2.45042632474981   -1.20948298789329
O          -1.30281778675323    2.54906706733283    0.65011600217479
H          -0.78547803084159    3.01616647774238   -0.02499295291560
H          -1.50310849804088    1.71008772460866    0.18720135514098
O           0.59925745108052   -1.24969926614945    1.92375254960628
H           1.16590575787834   -1.05374210913162    1.16200344338169
H          -0.15954989821683   -1.70871828710630    1.53462567327335
N           0.70544405493455    1.40787386902740    1.90049914567715
H           1.18747466956256    1.11565107084157    0.98278560831913
H           0.46072216579427    0.47632332406462    2.30162734296293
H           1.31162402238329    1.94367144325824    2.51169155399067
H          -0.15806629433551    1.95091729716128    1.59272891069728
