    23
        -45.37156353  Gyration_radius:  2.26852226034 Dipole_moment: 6.442
 S          -1.24027482804971   -0.01658261250052    0.88990116187184
O          -2.44933648065097   -0.69195878149328    0.49990902755313
O          -1.27792101855046    0.67806988820789    2.15806990677734
O          -0.10866230166387   -1.13831180288684    1.10543440823422
O          -0.69545886526809    0.84150328813252   -0.16881031552068
H           0.50396989684586    0.58712952716954   -1.13682998061247
H           0.00039817800786   -1.63646982275073    0.22734765246919
O           1.38355461072861    0.41794082540322   -1.58565993404608
H           1.37214559600852    0.93597109358854   -2.39129632441607
O           0.27490320538664   -2.12903420244456   -1.21613365596646
H          -0.61853204197163   -2.00188896497999   -1.61866768618118
H           0.82457925913808   -1.41724558084349   -1.57700782134748
O           0.37813592702023    2.57378291446815    1.71423771558664
H           0.00943068278765    2.89419722179380    0.88532178641631
H          -0.31567182046327    1.92923860905273    2.03915059925539
O          -2.17762594655104   -1.49921673836213   -1.96348035946255
H          -2.34946056155639   -1.10131306371541   -1.07480904139984
H          -2.84928105198696   -2.17443947731499   -2.07601058073329
N           1.90762116903699    0.58649499585583    1.06594091925899
H           1.38850326381812    1.49905015943620    1.35566601092212
H           1.21203607050371   -0.18132339184142    1.24849961700315
H           2.05558625938859    0.59690735367514    0.03898075256345
H           2.77136079803593    0.44749856232077    1.58024613176118
