    23
        -45.35096066  Gyration_radius:  2.71618854701 Dipole_moment: 8.130
 S           1.49562502389460    1.90070981138721   -1.95976757634164
O           1.03362638021113    0.52555426113107   -2.00951428152482
O           2.14882075574392    2.41323155486880   -3.10145894112827
O           0.28422149559723    2.78198563698018   -1.55957948766024
O           2.43632497241387    2.04905874682067   -0.72589867079627
H           2.11318560996231    1.43657936384280   -0.02677633030680
H          -0.55729474200082    2.22075279501215   -1.57854795911433
O          -1.43502435916680    0.42316871287214    1.07463711992960
H          -1.88250427574648    0.90639975269562    1.76992972502191
O           1.20578678634490    0.10475427339774    0.57042116213629
H           1.11172066799917   -0.05289976022530   -0.39044810344561
H           0.30545373887351    0.33229339701509    0.87903489007683
O           1.15056783961886   -2.49875423357901    1.48309344549111
H           1.30138103205604   -1.56643786525060    1.23978801389191
H           1.94002375798237   -2.97679970760369    1.22652970462023
O          -1.58717981575037    1.04468509297353   -1.56235581179737
H          -0.93496201152447    0.43710413579897   -1.93910911754782
H          -1.65916810484295    0.81992072837290   -0.61242739830755
N          -1.73899580929726   -2.16293424813188    1.46449286922143
H          -2.19476463144691   -2.46608465881152    2.31606894964543
H          -0.76262170718276   -2.45189744825443    1.51923770245495
H          -2.16262886926512   -2.66089446277173    0.69144291063509
H          -1.61159374446706   -0.55949588857429    1.23120718486635
