    23
        -45.36945915  Gyration_radius:  2.36883465231 Dipole_moment: 5.820
 S          -0.29933089868411    1.49379530640946   -1.13244009039555
O          -0.50627062798143    1.18923104238505   -2.52824462383785
O          -0.53157277992138    2.84958031749037   -0.73503469777209
O          -1.49287998026151    0.64454271194379   -0.36712851566440
O           0.90545117374391    0.88352717434411   -0.58747343761311
H          -0.40818747018813   -0.43092033572139   -2.61726034809359
H          -2.26653786555488    1.13211513079739   -0.63232545891013
O          -0.32480577341732   -1.41465176928609   -2.67254156607944
H          -0.19499307380078   -1.60373199576789   -3.60348709196168
O           1.52375008597076   -1.67995777518440   -0.77430087784037
H           1.62689299062939   -0.70797029503316   -0.73563999080836
H           0.95637868964853   -1.80077072249099   -1.56729996226817
O           0.49406531684146    2.06575537105929    1.70956095337651
H           0.80512964163214    1.64008943836617    0.88480599751698
H          -0.07158665546199    2.77195488923744    1.38143113819539
O           0.28661286313911   -0.14424624606973    3.12325158288670
H           0.26628941295476    0.74906302009288    2.69817841392027
H           1.16980218016160   -0.22975058477851    3.48716268855306
N          -0.40004912475960   -1.50637939940276    0.94855746531028
H          -0.94310707230550   -0.78470143986129    0.44744559520907
H           0.45751924780695   -1.70675294403226    0.30886594122949
H          -0.09181960611722   -1.07214791960727    1.86307844040188
H          -0.96075067406782   -2.33767298488446    1.10083844468821
