    23
        -45.35750269  Gyration_radius:  2.43779104533 Dipole_moment: 2.433
 S           0.83455610709129    0.14003366866078    1.49034812096893
O           1.32050834321564    0.63528507068672    0.21939864712022
O          -0.23615599604679    0.88185717001877    2.06258737068181
O           0.47054174158000   -1.34492090613079    1.31601896135209
O           2.01405436322290    0.05708321294407    2.48301966494375
H           2.71959432056092   -0.41361377000279    1.97322415391115
H          -0.36069196982624   -1.46934805114327    0.68969149808169
O          -0.87387945884472    0.84055359700123   -1.34532873629190
H          -0.01105730847060    0.90720651826673   -0.89983984816979
O           3.31389825572016   -1.12043091264458    0.55511794354519
H           2.88441660525703   -1.96832148604296    0.41239476964861
H           2.80144650233788   -0.46463907208347    0.05294642783367
O          -0.09602785643502   -1.52080306771834   -2.73173850709871
H          -0.27165375502210   -0.59485508718702   -2.50919496804139
H          -0.12295001704163   -1.58248442211294   -3.68737268649315
O          -1.41892965459874   -1.52775467223041   -0.31225143848511
H          -1.40895877241908   -0.60084948392214   -0.66965304743015
H          -1.06120221858712   -2.05153022559918   -1.04505521810564
N          -2.19834094992737    2.33550845176609    0.44839537135458
H          -1.59451396048370    1.93285038382759    1.16384172475566
H          -1.45116318814725    1.47919936074475   -0.85799440605016
H          -3.15379685346787    2.10803516407864    0.69445684911416
H          -2.09969426974112    3.34193852867506    0.49698735285404
