    23
        -45.34366640  Gyration_radius:  2.44388829699 Dipole_moment: 4.969
 S           1.55587297906072    0.08963431736728   -1.81301112068246
O           1.76530006427241   -0.03886457323620   -3.21150519184801
O           2.43632939537751    0.87475701297473   -1.02749593689788
O           0.09782898244949    0.59087787031048   -1.54693592158001
O           1.52754706054892   -1.36181465596561   -1.17923428561740
H           0.99362771668703   -1.92789775807140   -1.74031131580574
H          -0.49599629808228   -0.18414780124567   -1.76312108489846
O          -1.03152406281600   -1.38269921793695    0.85804353327203
H          -1.07622171318718   -2.10784559970670    1.48180538438951
O          -1.19930174164969   -1.61109489694236   -1.73410006163553
H          -1.17716741105602   -1.65038479535713   -0.73737770172683
H          -2.12474965200720   -1.56745301991944   -1.98542925138999
O          -1.86605320289183    1.27649266187727    0.42360175620766
H          -1.20306621710842    1.36338744873843   -0.27154580410076
H          -1.82142822521318    0.35035980245815    0.70149212587623
O          -0.32608552431717    2.31347280009549    2.42883289360162
H          -0.09493778026395    3.21491120880029    2.20120284727794
H          -1.02221935648297    2.04118071896621    1.79782539054975
N           1.09665571301543   -0.02131292245670    1.44108087056244
H          -0.15444056366016   -0.87811328714225    1.06698290519609
H           1.60633512550630    0.30461444530152    0.62482324346056
H           0.75310393522862    0.80172449782182    1.93981006694133
H           1.76059078667821   -0.48978424682130    2.04456665881581
