    23
        -45.37695652  Gyration_radius:  2.34873551602 Dipole_moment: 2.667
 S          -0.22204381701783    1.64187265347748    0.37254048503154
O          -1.19636662490430    0.71261644238873   -0.15298672620633
O           0.08683310212257    2.73230320001409   -0.52388510105957
O          -0.86351308616592    2.31471732812834    1.67249796310672
O           0.97812519513037    0.94441571551353    0.84491105789326
H           0.35834333872521    0.12072922962283    2.24314184169053
H          -0.69445056825860    3.24400292048235    1.54698586985339
O          -0.20750325936154   -0.31193326565501    2.90689678370502
H          -0.83185964439072    0.36154467053829    3.18519294160299
O          -1.37309916100538   -1.74249148479160    0.90583467994095
H          -1.46831078431278   -0.87382529911098    0.46900192897266
H          -0.98119117101517   -1.52033561760235    1.77059937972993
O           0.28657631928459   -2.84408054260383   -0.74987834950986
H          -0.34015374284132   -2.51147906079705   -0.03853712672064
H          -0.27333492234655   -3.23577935227124   -1.42191267909257
O          -0.00792322814709    1.10182147094071   -2.60661625471978
H          -0.88869500307545    0.77786028237358   -2.38830116662757
H           0.10456444831592    1.86991988510433   -2.00657074976953
N           1.52936310738348   -0.56883896231941   -1.22019840736812
H           1.43476908883220   -0.03180832851786   -0.31456945506610
H           1.07211360110955   -1.52286924299153   -1.08717648843514
H           0.99238268419515    0.00656331842371   -1.92645797171932
H           2.50537414773488   -0.66492598035863   -1.48051246523973
