    23
        -45.37824885  Gyration_radius:  2.35348762539 Dipole_moment: 2.043
 S           1.46665182209412   -0.81264948758975    0.30629548830301
O           0.80845482076482   -0.96638230422627   -0.99202729838131
O           1.55535682407838   -2.02293451770439    1.07156381073345
O           2.97863403292950   -0.40817633920508   -0.04572877640366
O           0.90547725815954    0.32099747125857    1.02888663413726
H           0.19213191982488    1.79698305903150    0.38919245033961
H           3.48256264096307   -1.02798787663173    0.47230570444101
O          -0.20943950569154    2.34414744749856   -0.31496469435219
H           0.47409941816028    2.33448254822850   -1.01356442516565
O          -2.97394608948061   -0.81007561939589    0.83423109071138
H          -3.50304725908416   -0.25633721347489    1.41119017302268
H          -2.21224407587884   -1.11964788362544    1.38767923772852
O          -0.80333364994479   -1.30956087829881    2.24252394478054
H          -0.25628438740137   -0.53846787325606    2.00812641865110
H          -0.21296168489942   -2.04989536510362    2.05333167581685
O           1.73141296362491    1.37774692586449   -1.92438023963326
H           1.44922457398648    0.47054281619090   -1.70539290321668
H           2.62805597633448    1.44438055180020   -1.59012649768940
N          -1.52831763830533    0.24680490721733   -1.14234503563739
H          -1.16419709119461    1.21133709416888   -0.84391953080985
H          -1.95568520635267    0.27076086592471   -2.06171650771006
H          -0.66313112218949   -0.35625798324625   -1.15201365554020
H          -2.18947454964233   -0.13981033420963   -0.41914706453378
