    23
        -45.37539209  Gyration_radius:  2.30859646991 Dipole_moment: 5.151
 S          -0.78835095402852    1.50840646946606   -0.93821635691626
O          -0.80435949427177    1.88266169994074   -2.31697852317516
O          -1.81273008972761    0.55408990352356   -0.54173490054042
O           0.52500334225708    1.09971010830113   -0.42818404696795
O          -1.11252829776438    2.84403367920384   -0.09765788417003
H          -1.35878133133341    3.48250385290471   -0.76061315135632
H           0.37297908139918   -0.07019655869445   -1.76029477164083
O           0.17366541103259   -0.83948348559149   -2.31098672832049
H          -0.37650033252461   -0.50019750364335   -3.01963149066677
O           2.47361366746559   -0.55896557578422    0.59129253641986
H           2.37863165093445   -0.28384051955216    1.50644516531984
H           1.97872208249773    0.09497861543289    0.07414484989337
O           0.21324663962416    0.91268350772881    2.17197229814795
H          -0.30146666187991    1.66245579989282    2.47435056031594
H           0.38009654341205    1.08446859175058    1.21590192529047
O           0.82047997826203   -2.51321451185175   -0.24683139409046
H           1.59899003988489   -1.98797417016641    0.03660153269224
H           0.61194995608638   -2.17904568851790   -1.13583421963728
N          -1.00847616356892   -1.26264926827411    1.12179269087967
H          -0.27908611602590   -1.86902581107697    0.60062388530738
H          -1.72377452416346   -1.82795412598511    1.56465960523199
H          -0.53072264641150   -0.63593210679052    1.79758892612971
H          -1.43060178115545   -0.59751289221740    0.40158949185084
