    23
        -45.34917521  Gyration_radius:  2.3669931234 Dipole_moment: 7.531
 S           2.26249916334997    0.46063594310441   -0.04341239310721
O           1.89939695617843   -0.91296100870474    0.14546288058828
O           3.63093296438801    0.81068819221419    0.03282035003950
O           1.62903362087383    0.95366841596330   -1.38863415559050
O           1.46770532404629    1.33198086720667    0.98752585724170
H           0.55124340295802    1.45737840655682    0.61915196481577
H           1.19394796455990    0.18074765724210   -1.84884923502304
O          -1.80450642705805   -0.63979412363038   -0.90211467458229
H          -2.72886408272530   -0.89022179987736   -0.91173461155126
O           0.24746810103816   -0.85640770188321   -2.61664642010733
H          -0.03889147010326   -0.53734899740128   -3.47492976473539
H          -0.54448861251876   -0.89108807717488   -2.03882355613029
O          -0.75731947069801    0.70064529625730    2.76428009536114
H          -1.17761626957464    1.28451748166393    2.12596466497475
H           0.18095198193722    0.91274943707505    2.73266624971698
O          -0.88896493721514    1.71336521039799   -0.07034724830097
H          -0.62347376799485    2.19780884050708   -0.85537983576353
H          -1.27984889172833    0.86158542318316   -0.38478476359417
N          -0.63388214866278   -1.69079105722520    1.10096377341766
H          -1.36798416370961   -1.13878219111088   -0.08582726946549
H           0.34231088633559   -1.59343102569123    0.81406970878443
H          -0.77655796638013   -1.07038924239417    1.89724568488685
H          -0.78309214729858   -2.64455594627305    1.40133269812504
