    23
        -45.35564928  Gyration_radius:  2.41949211136 Dipole_moment: 6.227
 S           0.83303332758461   -1.61557623723407    1.66866856881279
O           1.32437628819439   -0.39631665288153    2.25292779232189
O           1.06809815342349   -2.83810955994534    2.33629979297403
O          -0.70653345598068   -1.44301068040716    1.44314834249255
O           1.37516343074887   -1.72627372443905    0.21499736639599
H           1.45766126264358   -0.82568146702767   -0.20655339602292
H          -0.94619137792319   -0.47237787618122    1.46561599687377
O           1.59878265389118    0.52343699627538   -1.06941481407142
H           2.41870650669330    0.46266488100010   -1.56254235089886
O          -2.32511777432706   -0.51269952131541   -0.80761310157003
H          -2.05886902708244   -1.29845022259103   -0.32029121437207
H          -2.26633978314530    0.21253231856928   -0.17212843369743
O           0.96341674389385    2.00929786125232    1.16878798282342
H           1.25716669327935    1.75702965330231    0.28046995661977
H           1.28440322475455    1.28579329334257    1.74085256223225
O          -1.42993124785243    1.05471918829931    1.38853330283936
H          -0.55772143620078    1.53913208635166    1.26412112554071
H          -1.76673499244860    1.33128286841290    2.24268738407853
N          -0.36013475138229    0.18538074184175   -2.75381735994006
H          -0.21218338993235   -0.57077875184152   -3.41038284769539
H          -1.13700679742007   -0.08496586724110   -2.14274896938600
H           0.83893955391237    0.42225054975237   -1.74432215141329
H          -0.65298380532886    1.00072013270779   -3.27729555494416
