    23
        -45.35287673  Gyration_radius:  2.34259370007 Dipole_moment: 5.864
 S           0.00810930358181   -1.83710504616573   -0.92171477159772
O          -0.17641923711775   -0.81367352956722   -1.91613896582639
O           1.31167644322304   -2.05655901746204   -0.41571736174506
O          -0.97394139435605   -1.59237631709868    0.23145580019650
O          -0.50797914628575   -3.18348028285399   -1.55597234639107
H          -1.14975386456396   -2.95429162947911   -2.22438218460634
H          -1.63269800072380   -0.83235263667674   -0.07491663039199
O          -0.94486220342677    2.04286733848763    0.75664166832890
H          -1.03927933043309    2.97806342753092    0.93936974530223
O           2.44624459537576   -0.07229643413689    1.25001266585601
H           1.71643140733559   -0.03945082524058    1.89485599513280
H           2.32163076314165   -0.89583933024413    0.76213728266040
O          -0.03381514010659   -0.00132804084205    2.46873714642352
H          -0.41124706346017    0.78142123966053    2.03838102577396
H          -0.40196690687974   -0.76066321525453    2.00661291269096
O          -2.28795964917209    0.30804338865558   -0.68021308663625
H          -1.73001389174416    0.31084793568377   -1.47199860894394
H          -1.94949290605289    1.04552808395536   -0.11012167008591
N           1.15959223539937    1.53106611626321   -0.67497875883316
H          -0.09138542109490    1.92628844682090    0.20619019223509
H           1.78880025957882    1.08260201207037    0.00275687951082
H           0.88277710811705    0.80726080942712   -1.33135430978875
H           1.69555203967311    2.22542751645583   -1.17964258924889
