    23
        -45.35128229  Gyration_radius:  2.4454978473 Dipole_moment: 3.528
 S          -0.46192773539065    1.81468059686775    1.34600362168959
O           0.81582515103068    1.22938406884806    1.09673793306817
O          -1.31701249825339    1.21385604737699    2.31569102569588
O          -0.21154570928093    3.30878144677717    1.80248592918016
O          -1.22285884920204    1.97896668259359    0.02798641401652
H          -0.55493198542464    1.77336716222529   -0.75357377277733
H          -0.99011013998344    3.58892184460570    2.27930245329846
O          -0.75820700614668   -1.08511038115565   -1.86459723928358
H          -1.59476740418767   -1.06223761564488   -2.33033252421615
O           0.44078586339220    1.27539915880645   -1.68358744281568
H           1.18141420301088    1.10197461712076   -1.08889308428112
H           0.05219704491735    0.38903672021034   -1.89260912728740
O           1.96411719442823   -1.59720934286281   -1.54843438302276
H           1.02385728223238   -1.54983329018544   -1.77829165824808
H           2.28789955942095   -2.43722259582250   -1.87626284293940
O           1.60014796340304   -1.44943207175958    1.21869354236387
H           1.89611118304139   -1.52813916355553    0.29665050792640
H           1.54100497842415   -0.49951723210927    1.38258162215215
N          -1.19620193866697   -1.29408563559742    0.69787534673461
H          -0.25166613842406   -1.53587139745574    1.01806609260126
H          -1.44621236366621   -0.43638298312149    1.17943995857614
H          -0.97829398055667   -1.17788267423810   -0.87233346711782
H          -1.81962467413980   -2.02144394191510    1.02740111468333
