    23
        -45.36766487  Gyration_radius:  2.30067470561 Dipole_moment: 4.179
 S          -0.42632871540412    0.59581224717274   -1.73792440742940
O          -0.16658103747330    1.86592806763483   -2.33552298858990
O          -0.93639992782425   -0.45069008640956   -2.59121013596847
O           1.02841396575604    0.02651395052095   -1.25780519862544
O          -1.15798383611953    0.68906254388662   -0.46727159998963
H          -0.05415375892735    1.80053160989247    0.14283529629380
H           1.45718779595283   -0.14171612516449   -2.09107378814401
O           0.67160281286023    2.29823481834304    0.56686742155792
H           1.00390300966505    2.87451408059572   -0.12446468095653
O          -0.51563979491572   -2.67213434454892   -1.24222615353615
H          -1.14813409823450   -3.31712247430150   -1.56270014264551
H          -0.66956687045187   -1.86010934473797   -1.78293720044653
O          -1.46592362400980    0.85793571413693    2.38189973663553
H          -0.76829966699377    1.50881620155068    2.49408272698078
H          -1.82581308730065    1.02116501517362    1.50385816556897
O           2.04401116065034    0.09219683474997    1.36336910831660
H           2.50737416666364   -0.09083094482592    0.54217256329974
H           1.62152663681341    0.96704058125437    1.22012200281825
N          -0.23657206436458   -1.24987856951703    1.01944582307616
H          -0.76888727194933   -1.41072615044707    1.87112848347628
H           0.72613395570793   -0.87944728612484    1.24823157834825
H          -0.21990091045771   -2.05601200763838    0.36761003598473
H          -0.69996883964443   -0.46908433119642    0.47151336395378
