    23
        -45.36495832  Gyration_radius:  2.46673601665 Dipole_moment: 4.723
 S           0.18388144947390    1.97057888009690   -0.07686151876378
O          -1.05281341266685    1.21011193042726   -0.18632127361284
O           0.52412983056470    2.23831699509483    1.31174805185259
O           1.26645835941241    1.33335778064887   -0.80995255802981
O          -0.05299810389272    3.37295463147645   -0.76265910507011
H          -0.00644750174238    3.16826214376107   -1.69213444932689
H           1.74821201602725   -0.06461014226326   -0.25393078438965
O           1.94607985709041   -0.94561465274489    0.17199251705544
H           2.82695165883408   -1.18688524086291   -0.11843616341898
O          -0.65578302787940   -1.36636681280123   -0.84615111354207
H          -0.79550085194596   -0.39896302462312   -0.80599499805348
H           0.28259241072788   -1.49482731931676   -0.65316073857743
O          -1.89229629636996   -0.72937923586229    1.51260681262730
H          -1.72229574304803   -1.35888900438079    0.79026389776788
H          -1.95615541831763    0.12377438075270    1.04655948613246
O          -0.79356789586175   -1.70344249656587   -3.62093998562567
H          -0.74333531321956   -1.62956450957528   -2.65318259913957
H          -1.70206257723792   -1.93310139991104   -3.82057644255760
N           0.53164940492048   -0.13820819913357    2.32459253797135
H           0.55214420296085    0.89436339429108    2.03499690444667
H           0.79710990731607   -0.26096810503646    3.29592248992574
H          -0.46837618027352   -0.47298570029850    2.13261318849123
H           1.18242323521543   -0.62791431323690    1.67900584382827
