    23
        -45.35792930  Gyration_radius:  2.39884572487 Dipole_moment: 6.781
 S           0.42160058709346    1.36162785233726   -1.61983318026010
O           0.79581097722458    2.60499722489455   -0.99201327172726
O           1.49894269917757    0.42281184801672   -1.81579598909973
O          -0.70860988406965    0.73091506858741   -0.91696460414701
O          -0.12803245153203    1.74507873080174   -3.07073762013456
H          -0.35729120266493    2.66639096022406   -2.98658853293570
H           0.35582493107037    0.82423752423599    0.32012208431138
O           0.86825015530403    0.88794601075707    1.16071184226941
H           1.40382717179235    1.67465468152874    1.01792596373371
O           0.67837351911524   -2.00883488119653    0.89906733602589
H           0.92578314914288   -2.22206785333478   -0.03079521863590
H           1.06415648541645   -1.13980556419877    1.06696299962007
O           1.23754555189636   -2.17701705184183   -1.69206443079112
H           2.06670591146890   -2.50614824944121   -2.04224312566571
H           1.27312272009801   -1.19774559275709   -1.80847752356354
O          -1.75325727738226   -1.21556787292732    0.47479568167398
H          -1.52520133610334   -0.58918686459969   -0.25114844279025
H          -0.89428167667716   -1.71804089334821    0.61995768106037
N          -1.45934022558217    0.39533098451110    2.38160851860929
H          -0.50444949873320    0.72318685165286    2.10433867780253
H          -1.70454941598440   -0.38490091277830    1.52278468801820
H          -1.44058078517157   -0.04635723981136    3.29377167989223
H          -2.11435012489464    1.16849521869053    2.36461479673821
