    23
        -45.36664623  Gyration_radius:  2.44778395454 Dipole_moment: 6.054
 S          -0.00123086646534    0.22954731309918   -1.92241443111352
O           0.28576607286157   -0.83153205818134   -0.91698855686182
O          -0.54542537405031   -0.31341915110557   -3.12538449279846
O          -1.18355136282703    1.08698755142868   -1.21857295556408
O           1.09819339234678    1.15179297592496   -2.00633199495409
H           2.33849282983507    0.67282051570114   -0.97125999633576
H          -1.95376473790413    0.50833997168165   -1.26558257632391
O           2.90413026241925    0.20367641154467   -0.31774312214746
H           2.66569954671207   -0.72113758247481   -0.42142136362851
O          -2.28260295381178   -0.93604822601048    1.70957398355855
H          -2.36978296549721   -1.77848506589679    2.15862863638187
H          -2.43554141418889   -1.11464220100897    0.76744390017240
O          -2.25069235155476   -1.44517929737557   -1.04464957102296
H          -2.48071183589216   -1.69195316370599   -1.94357245532995
H          -1.26883568669376   -1.42417511896313   -1.03341109147061
O           2.37385743159283    1.02840010704949    2.13427517759788
H           2.77180596134116    1.89152060228996    2.25616861464933
H           2.70327106093902    0.69899988484253    1.25816873059932
N          -0.07337567501878    0.57214428842534    1.21840697753780
H           0.78863314554780    0.77758030543621    1.78263081809976
H          -0.83714183755854    0.08686074420334    1.72334052659904
H          -0.44141711933117    1.41623448221072    0.77913500023174
H           0.19422448717776   -0.06833328911727    0.39956021211859
