    23
        -45.37304343  Gyration_radius:  2.4317557857 Dipole_moment: 2.167
 S          -0.03118078707907    1.30819200028704    1.62679190691971
O          -1.38595920351431    1.49079684694337    1.12072937651918
O           0.23242581751237   -0.07055167171314    2.01072162076096
O           0.97055290278892    1.83140483724893    0.71912302637210
O           0.06195854760597    2.15425155348293    2.96420816131246
H          -0.20781476717468    3.02104830238407    2.67695473801027
H           1.17716427335529    0.99063991627771   -0.71112254711713
O           1.15983458663284    0.25757216676448   -1.36989406847599
H           1.62723646518805   -0.46850008497847   -0.91403627181016
O          -0.87502497103890   -2.31885832954958    1.01121739059087
H          -0.03986607079401   -2.72733157133779    0.76202343104536
H          -0.62381377503333   -1.59431593265584    1.61546870523537
O           1.98751573331683   -1.43543830622776    0.57180166372941
H           1.40356290637793   -0.90731461874568    1.16292609816171
H           2.87406472004556   -1.33146545562474    0.91976263177586
O          -0.86297552754925    0.31370864671934   -3.40905271254170
H          -0.79750662878154    0.78583817607600   -4.23970270492719
H           0.00254086744225    0.38503462404233   -2.98389423635208
N          -1.36420629152979   -0.34980762418273   -0.72025136085621
H          -1.55569764105974    0.43000875991103   -0.02959691703743
H          -1.37117495649458   -1.25384713556092   -0.18998258410678
H          -1.99715783936760   -0.33398981030731   -1.51679264436608
H          -0.38447836086451   -0.17707528935849   -1.07740272284755
