    23
        -45.35094043  Gyration_radius:  2.37641427516 Dipole_moment: 8.138
 S           0.78974958348489   -1.74527024389421   -1.33334632007134
O           1.17576669192574   -1.13583908822145   -0.08719997516574
O           1.08271476407976   -3.11786814481588   -1.50614094268462
O          -0.74667974741301   -1.47344977079565   -1.52462531374234
O           1.38570417365888   -0.93206492520222   -2.50521276329047
H           0.99392925546008   -0.02384327762319   -2.42064935145345
H          -1.16220141421396   -1.20583541726370   -0.66422720484720
O          -0.81589235218907    1.86258683662178    0.28386138594249
H          -1.09777789240178    2.73730846820252    0.55498967492483
O           0.07532533248737   -1.26834036143912    2.48673627010974
H           0.60604031402459   -1.42233458927298    1.69206426929851
H          -0.82879044245534   -1.20986487405735    2.16431697885875
O           0.00936025411513    1.26030440774778   -2.22471199409523
H          -0.79373914918693    0.94359255219265   -2.64485726126573
H          -0.23569740260729    1.50647788733498   -1.30733494069286
O          -1.98687013318609   -0.51999987010095    0.57564153942811
H          -1.60035551863620    0.38553560967321    0.53992685685939
H          -2.91705250012257   -0.44284925787393    0.35435908234853
N           1.30689427134250    1.19796571394374    1.58053583490784
H           1.65703865363567    0.51202011233431    0.91493999308704
H           0.04255616970751    1.65297580259719    0.81740704434821
H           0.98439396546901    0.65304937911963    2.37773160220742
H           2.07558312092574    1.78574305107997    1.87579554465934
