    23
        -45.37871372  Gyration_radius:  2.3293716363 Dipole_moment: 4.107
 S           1.86855078681577    0.13842266388916   -0.37546709252050
O           2.01285333462445   -0.40685452464998    0.96961039186626
O           1.31038763622231   -0.79466750657866   -1.32332611999582
O           1.15959476386562    1.41880844654848   -0.34362406743922
O           3.33590953679470    0.46116776952489   -0.88362172927368
H           3.71018763211556    1.00568665304311   -0.19755117487768
H           0.38000642931395    1.49781886045705    1.14484896327950
O           0.08621226241207    1.15235830678988    2.01760011424397
H           0.82376624226521    0.56980237449043    2.24941956439650
O          -0.48192723167115    0.90649278279440   -2.35507956666830
H           0.04591764852270    1.37344649556972   -1.67958479582476
H           0.01854626619168    0.08433100780751   -2.45909555697588
O          -2.69038845003292    0.36336137519030   -1.06590835765204
H          -3.16983495264454    1.19306338212594   -1.05020724101623
H          -1.88573286426427    0.53113685124436   -1.63315846540036
O           0.26337723845519   -2.32909208918847    0.57279323785544
H           0.99449292090267   -1.80368479056279    0.95953734459808
H           0.43356706215222   -2.21420777797301   -0.37515048175882
N          -1.66714316447356   -0.63501866537926    1.17601615199687
H          -1.06873026507526    0.13861851779937    1.59714265715182
H          -2.36046457840442   -0.96688011995436    1.83765567520104
H          -2.13059504703299   -0.26755138642059    0.30073512102526
H          -0.98855319707484   -1.41655861657828    0.91641543779316
