    23
        -45.35930530  Gyration_radius:  2.41048217775 Dipole_moment: 8.371
 S          -1.49099800296077    1.78425357300309   -0.72186815931912
O          -1.27072511173690    0.66019127859657   -1.65260113142738
O          -2.55439465179632    2.65675284051319   -1.07782607646250
O          -1.88821304010324    1.02935670920745    0.65229692390298
O          -0.22407164223130    2.44303108125065   -0.40695687809609
H           0.99789588800955    1.76057526345069    0.13388650959884
H          -1.96156925190938    0.10990551758033    0.38124048160905
O           1.82188405281584    1.24166641632341    0.43084466137322
H           2.49130095860309    1.90501726336583    0.60333536144919
O          -1.19687141552918   -1.71202342142251    0.96588306597438
H          -0.64360958615660   -1.10994034465950    1.52835708082649
H          -1.82463382641859   -2.13417207901882    1.55359514178136
O           0.74201009639420   -2.77711362231298   -0.54831458937756
H           1.36623360112372   -3.06834200067236    0.11896159760453
H          -0.07084622603478   -2.51149104547089   -0.06760347599363
O           0.16703636065883    0.11312102088025    2.30559694448113
H          -0.54080286864463    0.75658572841824    2.16477348575716
H           0.90597580218457    0.43571208880720    1.75879338640672
N           1.06338652735102   -0.32674072690702   -1.63816058468501
H           0.99114276864953   -1.32289404386165   -1.33026168809473
H           1.49976536029785   -0.25544038761792   -2.55011974034654
H           0.04115664964403    0.09954390100535   -1.67946898497474
H           1.57894754776877    0.22244498952155   -0.92438331197798
