    23
        -45.37876560  Gyration_radius:  2.2740662239 Dipole_moment: 6.341
 S           1.41867814602541    1.07264660807130    0.51640422925078
O           1.94031963938112    0.00977838353559    1.36932924756712
O           1.47583723229407    0.76708594759684   -0.88905262275702
O           0.08179036712467    1.47280322779011    0.95937431567040
O           2.35300453616699    2.32604691785844    0.75296661185567
H           2.38878304702445    2.39485159226979    1.70185537078799
H          -1.03214286519505    0.32852876220697    1.23704625720640
O          -1.66964817884234   -0.42029184774602    1.36068187682864
H          -2.31147845192794   -0.11871744868737    2.00512737163713
O           0.36697685832827   -1.52493929250292   -1.74202534185429
H           0.89955515233045   -0.71027028915710   -1.65868906658465
H          -0.56947500054059   -1.20279507016028   -1.82038994237429
O          -0.90836275246058    2.05530441584433   -1.47735908504256
H          -0.65347957029931    2.00633102538484   -0.53947247360195
H          -0.08373365829800    1.90137713238446   -1.94899919981392
O          -2.00744847372423   -0.41568516168613   -1.46646451743383
H          -2.13562438475090   -0.49397750642691   -0.51127215217717
H          -1.76566448597949    0.52366684622729   -1.61375585093900
N           0.44126880172214   -2.03042635177320    0.77309885645523
H           1.14379689391982   -1.29585194024897    1.08411447271881
H          -0.47898168152082   -1.72411619485142    1.12592232540156
H           0.41902859666394   -1.96544560864640   -0.32437008605339
H           0.68700023255913   -2.95590413727982    1.10592940325143
