    23
        -45.37906164  Gyration_radius:  2.26461823308 Dipole_moment: 6.078
 S          -0.07288987772502    0.45178858396971    1.39729270029172
O          -1.41682764029874   -0.08259380885291    1.41693885132264
O           0.04334043108017    1.69196296452685    0.64042759725408
O           0.33966529789358    0.73517065147334    2.87790879165629
O           0.88838024929975   -0.53731508176497    0.87229493398241
H          -0.06817983429879   -1.87562689323189    0.42072608280113
H           1.21345108517444    1.16434404474996    2.79009687307739
O          -0.85170667338097   -2.36839130248894    0.08963773693157
H          -1.54824539899970   -2.05718557037682    0.68158685487471
O           1.57247785253899   -0.28474094100493   -1.63605317555624
H           1.37146310102240   -0.28136565172501   -0.66655824248692
H           2.25821763155158   -0.94367558472620   -1.76028968019951
O          -2.12366910589034    1.20619654324981   -0.78241949579726
H          -2.31309367320028    0.73191503238599    0.04810185246831
H          -1.34300989847503    1.72928280381800   -0.51649546624096
O           2.48109494689014    1.75715284443795    1.69026057087036
H           1.72503237603634    2.01342595878119    1.13042309724018
H           2.83018687276098    0.95112849050661    1.30097455708734
N          -1.01005623172295   -0.80990655196313   -2.03513202724914
H          -1.40078960826761   -1.12177477599058   -2.91709564292797
H           0.00556548622097   -0.55854956894776   -2.11723108531106
H          -1.52559853923696    0.04814202656678   -1.64640109415355
H          -1.05480884897305   -1.55938420339970   -1.27899459993433
