    23
        -45.38129254  Gyration_radius:  2.2857618667 Dipole_moment: 2.194
 S           1.10209067015357   -0.62872436728983    1.29247696598129
O           0.14576593212520   -1.61856857181093    0.82991351878662
O           1.83103753498030   -0.02604015369017    0.17974790154932
O           0.53701666906936    0.37355594190278    2.17016203143692
O           2.16558766598954   -1.42776809558154    2.15236714947151
H           2.58981974372338   -0.74313159185604    2.65999977560918
H          -1.15276523744607    0.18434852178632    2.01572429408720
O          -2.04601085668912   -0.09651155871079    1.73336318843171
H          -1.97166501597820   -1.05017798352489    1.64371454729861
O          -2.07496624566099    0.97822271166521   -0.71499029234447
H          -1.30715582737420    1.57604047709433   -0.59124005664971
H          -2.27840102122904    0.65884132542522    0.19374537581469
O           1.51337142765571    0.08673596807144   -2.45537991368818
H           1.84308630336289   -0.01619428119731   -1.53864798375747
H           1.41384918061431    1.03368376814407   -2.58273402929797
O           0.27513565069811    2.12334442771885   -0.05940657248567
H           0.12826232872583    2.39830588953128    0.84940558884113
H           0.90769026249365    1.38184867091726    0.01477349552223
N          -0.73566450824043   -1.06113999895404   -1.58448727447151
H          -1.20795112589461   -1.79391085905906   -2.10153361064454
H          -1.39493723316225   -0.23659719980908   -1.33759385710807
H          -0.37324106477412   -1.41561164686246   -0.65849208265302
H           0.09004479666860   -0.68055139351738   -2.11088815961321
