    23
        -45.38129271  Gyration_radius:  2.28559613255 Dipole_moment: 2.189
 S           0.64359584137648   -0.70869692353936   -1.53783264917833
O           1.66138219686364   -0.03002919933107   -0.75560771732004
O          -0.08763164348099   -1.68524767436687   -0.73519654749480
O          -0.25061960042021    0.18297333849188   -2.24465187812177
O           1.42752722484626   -1.52609523062858   -2.64511054160327
H           0.75436257364761   -1.71355394091278   -3.29179355925413
H           0.04464700703857    1.72184620728147   -1.56740962658363
O           0.36564066321149    2.45889555289806   -1.01040698951763
H           1.30291528774584    2.27741149256655   -0.90291982271207
O          -0.37811699500970   -2.17127882208153    1.86098411138728
H          -0.22936399323479   -2.21736505374864    0.89389466931015
H          -1.32191946931796   -2.02463753306277    1.96404102379030
O          -0.87854299460988    1.83750898885148    1.27332266794628
H          -0.48065321958807    2.27804388826550    0.48792109572441
H          -1.51807557136297    1.19992658928163    0.89038853211719
O          -2.13480629052116   -0.09148322624230   -0.12914707911424
H          -1.43569529233796   -0.73417310996821   -0.36075639044324
H          -2.33317701731037    0.34875628228290   -0.95977108697635
N           0.99217618259327    0.12008709321532    1.78323324849909
H           1.38707029090151    0.02622061868965    0.80864193414707
H           1.71668628163056    0.34442022160362    2.45561767225961
H           0.23712984000819    0.89485325127715    1.71295296935260
H           0.51546871733927   -0.78838282083294    2.00960595380277
