    23
        -45.37871373  Gyration_radius:  2.32969994205 Dipole_moment: 4.107
 S           0.54211758018656    1.79265285020154   -0.38628731507785
O           1.31090165039667    1.65025947885417    0.84507819912061
O           1.01645619183508    0.96269265857327   -1.46626552438433
O          -0.88968881376167    1.63402538707145   -0.12532560054525
O           0.73877725463087    3.29291003676891   -0.86156173880567
H           0.50419748478006    3.81583279443551   -0.10076887349574
H          -1.49812792175454    0.65170981356420   -1.42480657739426
O          -1.55171044518341   -2.28814243678189   -0.93239662407987
H          -2.48824986687625   -2.40933628410933   -0.76886517572015
O           2.30621043552320   -0.68659751020597    0.16655160925172
H           2.11587065035945   -0.44219771074236   -0.75248796454896
H           2.17680620930469    0.17245670548479    0.61992395789437
O          -0.68374180962329    0.43256411636264    2.17959734200770
H          -1.02336141931508    0.87767787735993    1.37095062600138
H           0.16945648160127    0.87484441320354    2.29583911966523
O          -1.39156820888544    0.01551835508117   -2.15762421200898
H          -1.48199924272408   -1.45559781764306   -1.47967326957345
H          -0.46883360632121    0.16255028517983   -2.41069877840050
N           0.11671490131846   -1.83551175249842    1.08761144868244
H          -0.53975938619786   -2.08019367614306    0.29689505657218
H           1.04691261566865   -1.50180484984835    0.68553167493251
H          -0.28288833165436   -1.00392830751962    1.61934425755878
H           0.25550761670940   -2.63238442665163    1.69943837235805
