    23
        -45.36930987  Gyration_radius:  2.591543785 Dipole_moment: 5.873
 S           1.75043043352560    0.81912538447735   -1.36306678002213
O           1.71313953926232    1.94884135975796   -0.45913578555956
O           2.17895973958405   -0.42462690745313   -0.75334746140719
O           0.48191302111244    0.66258635512596   -2.08254295074901
O           2.84146833009934    1.18027937410310   -2.46481151514828
H           2.78939003150773    2.13056763648847   -2.49740466299630
H          -0.03467461915512   -0.96133274701432   -1.80720972105064
O          -0.06952973600805   -1.78611363243814   -1.27801586024146
H           0.86018512981847   -1.88509783503259   -1.02719395541492
O          -2.46195206766199   -1.64391467155341    2.93490490756546
H          -2.21689132755613   -1.26746672587994    3.78320684808822
H          -2.49989041124734   -2.59675399101282    3.04062855978645
O          -1.65572565747142    1.57716625206501   -0.86120972437113
H          -2.32516421077946    1.59331470601018   -1.54719797965843
H          -0.80582136570447    1.37789626895213   -1.32217543318830
O           1.33246276026135    0.38211136622471    1.61881971969266
H           1.41134146601289    1.24179525039798    1.16195502607243
H           1.84810051944144   -0.18548950567895    1.01769325418394
N          -1.05126648531087   -0.44264095042548    0.79999795300367
H          -1.67963125714970   -0.86163701940951    1.49363105965981
H          -0.76905078980231   -1.12746031325604    0.04586301925685
H          -1.48323567325441    0.37140265977597    0.31156222358363
H          -0.15455736951381   -0.10255231422602    1.25504927890470
