    23
        -45.36173762  Gyration_radius:  2.39014085773 Dipole_moment: 5.024
 S           1.33072154134281   -0.80782343540927    0.28443639982298
O           0.09253009143074   -1.54763068174898    0.19808487356189
O           2.23374839239053   -1.02328778376955   -0.79713152355145
O           0.94059055060407    0.71366980245200    0.35799350148957
O           2.02348327175932   -1.01745726362616    1.61447686241903
H           1.46812203820461   -0.53954480934469    2.35930391055053
H           0.24091235849491    0.83277278112057   -0.33967970691258
O          -0.84207655822325    0.35492771980170   -1.48826338195536
H          -0.83611831689983   -0.54333605564092   -1.12226323726061
O          -1.59382727601743   -0.62626844114043    2.10679769280581
H          -1.12024053732814   -1.14714179841857    1.43520476187718
H          -1.99803383936856    0.12300005565313    1.62945098263722
O           0.57520468649676    0.25172443320854    3.21725757260761
H          -0.32905089254734   -0.09381851072863    2.95097034920910
H           0.62881896463439    1.14842379125013    2.87431481164719
O          -2.51538162443660    1.37485962096139    0.46469777257396
H          -2.01717802402022    1.16911103572495   -0.34154208431191
H          -3.44333074826205    1.38519927675649    0.22411094993806
N           1.10159488829586   -0.00113136817759   -3.24028964335810
H           0.99791010809572   -0.68465413245140   -3.98005865274879
H           1.67794098203280   -0.42177490500027   -2.51006835012227
H           1.61330390882339    0.78594425989357   -3.61927157755249
H          -0.22964394548642    0.31423642864410   -2.27853226336315
