    23
        -45.37465125  Gyration_radius:  2.26014590026 Dipole_moment: 4.374
 S           0.19787280226427    0.71525087264059    1.79975586903535
O           1.45410922390559    1.37978899095745    1.49362830822012
O          -0.40901191738438    0.99626095632009    3.05778665091489
O          -0.78656046242188    1.26714257400277    0.65151487516779
O           0.29277235285833   -0.73369195150926    1.52859126376637
H           0.92783304372507   -1.43182254455573    0.28510842756857
H          -1.58998038863250    0.73784091921766    0.79382836842951
O           1.28994592036108   -1.79935831056757   -0.57138994588546
H           1.72687280331374   -2.62123081897751   -0.34512202406856
O          -2.28879721153255   -0.82616478748552    1.32259677269628
H          -1.34252944349481   -1.00259334744600    1.52702290484361
H          -2.72528168204791   -0.72447982921336    2.17076435975807
O          -0.48729604557579    1.38920183723002   -2.08414678752913
H          -0.87785654941445    0.48562411347810   -2.04918653050894
H          -0.85603705975413    1.83896320302130   -1.31410126238517
O          -1.30857941583497   -1.09273536142777   -1.47115403196627
H          -0.46232880802063   -1.51554822697286   -1.26288629149831
H          -1.83273632523683   -1.12022327627977   -0.66264713648713
N           1.84052261139717    0.81788914558685   -0.99123770042290
H           2.67867778032501    1.22164319851525   -1.39514132185414
H           0.96152604882788    1.12245117724268   -1.51946662439377
H           1.86841239708167   -0.21831438428390   -1.00590684657054
H           1.72845031518799    1.11410585054335    0.04178870317388
