    23
        -45.36489202  Gyration_radius:  2.31294252262 Dipole_moment: 7.310
 S           0.57417493711400    0.29907694029993    1.83919121662922
O           1.93706769367711    0.25466793050616    2.28113194276138
O          -0.42216054867682    0.67281826091778    2.80647689806596
O           0.57767018682462    1.55256411964354    0.75508448949354
O           0.18110624823678   -0.84079315651188    1.01648829955978
H           1.68032491390888   -1.26455589757806    0.38278303209036
H           1.16511889570269    2.13876774097675    1.22203736960222
O           2.55757834545445   -1.18691502216916   -0.04515395749898
H           3.09589595790919   -0.77963117584932    0.64118385669582
O          -2.14932098384162   -0.99186930222988   -0.09813064667443
H          -2.45886367689229   -0.11380961864510    0.22258495095905
H          -1.34957151601387   -1.13721886127759    0.46035243189892
O          -2.26506589299570    1.38645080022838    1.05508097158144
H          -1.75810195776971    2.07466168202226    0.61922397401700
H          -1.71075477766510    1.10920034984629    1.81843871880411
O           1.31536782377449    0.49179720265325   -1.65064753841421
H           1.01264837014416    1.02089165676012   -0.89309729574595
H           1.93854875093964   -0.15768545620515   -1.23718354246603
N          -0.79037409641470   -0.90940143603592   -2.26711339181968
H           0.09331697450755   -0.31876290635741   -2.03882269778100
H          -1.28134613503696   -0.52066032882070   -3.06555466299933
H          -0.50325189409691   -1.86365355678726   -2.46267776442265
H          -1.44000762875714   -0.91593996535698   -1.36167664434518
