    23
        -45.36995848  Gyration_radius:  2.60139056377 Dipole_moment: 2.415
 S           1.79551139189781   -0.31798884332071   -1.43715878155804
O           2.27786283153066   -0.53506942539561   -0.08949327851665
O           0.67287639927756   -1.19101416390474   -1.77233068183694
O           1.49898292218518    1.07792696752124   -1.71728042523273
O           2.98384186504229   -0.72982125106081   -2.41092174248077
H           2.66650111864973   -0.47397800471515   -3.27265937484595
H           0.87833244963122    1.55364982294936   -0.33591669974498
O           0.52353018412027    1.63865044599330    0.59173953569995
H           1.29529658738546    1.51298708108114    1.15010996345376
O           1.20179563324910   -2.23214053681098    1.64457632839882
H           1.72443575831421   -1.62426411594874    1.07417444642617
H           1.49989528255135   -3.11540536650700    1.42337928317492
O          -3.29660268564263   -0.05141507020262    0.40113102934950
H          -3.78146789927927   -0.06330792469061   -0.42554000749281
H          -3.00667257689378    0.87509251440529    0.53376704235909
O          -2.15012420977976    2.38930020277958    0.67586996257106
H          -1.19370816395153    2.26408634460404    0.56150328321716
H          -2.26013697880824    2.96249799680880    1.43602837367222
N          -0.69715593190876   -0.80204519115066    0.40488827589554
H          -1.73613987444422   -0.75147750865642    0.42834396963028
H          -0.31184350398433   -1.04632220320181   -0.55120076220769
H          -0.30448088063481    0.14037448363716    0.61717614190501
H          -0.28052971851376   -1.48031623421501    1.06981410816148
