    23
        -45.36750591  Gyration_radius:  2.46879194246 Dipole_moment: 5.309
 S           1.61619971950528    0.87922510246123   -1.35309746290551
O           0.44830766805791    0.04231531528978   -1.59499858614505
O           1.27092842115378    2.05332344732933   -0.54734420964187
O           2.72352224122183    0.14674677210349   -0.78661234960731
O           2.07597320080713    1.41811052098754   -2.77282876569426
H           2.96627017595541    1.72588279501191   -2.62673070699208
H           1.90813873144989   -1.62822329505398    0.30415963242272
O           0.95039678692765   -1.55847607269690    0.38516520791134
H           0.70056037866080   -1.08512374837991   -0.44872539741841
O          -1.59698087444931   -2.71786141437680    0.25198954858752
H          -0.64723874833715   -2.53625355407489    0.31247527553094
H          -1.93352022637981   -2.74136926875322    1.14935619107305
O          -2.19293116925834    1.02937457151311    1.34447950305408
H          -2.26799091456789    0.50747054202594    0.48709581029995
H          -2.51262979727105    1.90812438807802    1.13395833854404
O          -2.16298521367922   -0.27659006792637   -0.89094684750451
H          -1.30416687938490   -0.07646758159770   -1.30276717981665
H          -2.11734838899032   -1.22093107696506   -0.65217716164566
N           0.42182224080230    0.82722425966567    1.55417880830060
H           0.64991634108288   -0.16149400284820    1.29711734188299
H           0.79485154578682    1.43277993233315    0.74569898037359
H          -0.63878800369695    0.94063818481725    1.57474990018669
H           0.84769276459872    1.09157424104367    2.43580412921451
