    23
        -45.37859066  Gyration_radius:  2.33470184238 Dipole_moment: 3.187
 S           1.03036105801702   -0.82887374854293   -1.42622314010810
O           1.39074573704483    0.58095589071703   -1.42690730470643
O           1.62303384587564   -1.58682825939138   -0.34734644280098
O          -0.42173549086482   -1.00626154162732   -1.49580923660272
O           1.61841625990764   -1.43609828696801   -2.76822046481645
H           1.36133739159446   -0.81493722973942   -3.44322996121246
H          -1.11618881253789    0.55469533596600   -1.62361885107882
O          -2.06353945880199    1.90123279914841    0.84681877363910
H          -2.99745297916096    1.69729657863860    0.77705678294904
O          -1.11880752750345    1.53155765341191   -1.56730558435253
H          -0.17257326529005    1.73226448335525   -1.59138814160435
H          -1.71165267567067    1.86694018061088   -0.08516226550302
O          -0.74143977756915   -2.11153350831596    0.84905739905257
H           0.16050922702281   -2.45767160022311    0.81841435117165
H          -0.85601778830551   -1.77509373430497   -0.06819462851461
O           2.01881279521173    0.54988323481161    1.13637156666897
H           2.16511459535609   -0.37629870357084    0.86754531481421
H           1.91020428351667    0.97404022895522    0.26585124066165
N          -0.42382081005556    0.20616676351465    2.07963855373225
H          -1.09278735633989    0.90547335979064    1.65737732167065
H           0.57131411079786    0.44826523704188    1.78129815566817
H          -0.50190725806738    0.20195415957897    3.09088674348366
H          -0.63192609418086   -0.75712928288487    1.67308983780225
