    23
        -45.34366619  Gyration_radius:  2.44380979242 Dipole_moment: 4.965
 S           2.09373690883028   -1.13144969511240    0.23807654074465
O           3.03181926962315   -2.03531615588930   -0.32680910007898
O           2.04916069406287   -0.93162580836601    1.64054551307232
O           2.30508782486279    0.28802297360873   -0.43258798527301
O           0.65238693285055   -1.50715664309727   -0.24023502396620
H           0.61294768218652   -1.24721884033389   -1.20538856258999
H           2.40789621410577    0.16479673605143   -1.37842502112457
O          -0.69082226840122    1.37861241283770   -1.15583204306891
H          -0.75906123112357    2.30810831081280   -1.37580566128001
O           0.61359879931382   -0.39687521088515   -2.54836946703379
H           0.12866464511679    0.36306235478585   -2.11984712492070
H           0.02066348612950   -0.76101425449828   -3.20972399796882
O          -2.41301428637840    0.18749284793136    2.34364185001579
H          -2.47845923840934   -0.53778086142880    2.96633867043657
H          -2.50635419658041   -0.20607734436650    1.45300478541378
O          -2.13310680344396   -0.83884584927276   -0.17366493053760
H          -1.88487133804121   -0.01355313872910   -0.61421026748910
H          -1.30042379982471   -1.29576602117610   -0.00571808726507
N           0.09096184647630    1.24561289900448    1.31218684779732
H          -0.33061357199083    1.33844627869424   -0.18796728105622
H           0.46118327599099    2.10518905627047    1.69761829249835
H          -0.74962161803881    1.00668114170980    1.84174632360725
H           0.77824075260287    0.51665481154662    1.48142575019151
