    23
        -45.37000950  Gyration_radius:  2.26044203561 Dipole_moment: 3.309
 S           0.04576577565295    0.45741939987653   -1.89463479555071
O           1.23207098273726    0.01450954510267   -2.56875753075816
O          -0.97399503951422   -0.56663848930032   -1.72436303695570
O           0.31800420376296    1.12552758395256   -0.61408332964254
O          -0.60632688068371    1.58966952172263   -2.80939211157332
H          -0.19985744179123    1.45423271194846   -3.65984023775102
H           1.55547742569545   -0.06783523940216   -0.30947232759132
O           2.08259770130292   -0.84988077412744   -0.06633077478198
H           2.50271024192676   -1.10533019552855   -0.89256474582873
O          -0.24527919700020   -2.18261910741703    0.21395330324793
H           0.70189442822038   -1.93212147397784    0.22341768406393
H          -0.59866918349721   -1.74514821069474   -0.59562144871870
O          -1.23962800583005   -0.65249908602499    1.93163500265498
H          -0.87511458247682   -1.40210512105358    1.28721988757448
H          -1.77083685019364   -0.03287014720232    1.30663665604990
O          -2.18614219077555    0.89840486909009    0.14843799286430
H          -2.38158861396736    0.30812889766070   -0.59372027092126
H          -1.30012563228297    1.24253375054101   -0.09403374548149
N           0.85556387579335    0.73811467534113    2.18906137990123
H           0.98440433641830    1.42003358295923    2.92472249909628
H           1.67365232766082    0.14145974686444    2.13902174646216
H          -0.35850186769285   -0.07275195525056    2.16514485895039
H           0.78392419653250    1.21976550492428    1.29356333469439
