    23
        -45.37885723  Gyration_radius:  2.28915878949 Dipole_moment: 5.321
 S           0.59496938513701    0.95206713608225    0.58878543368805
O           0.42349278919494    2.26470019065883    0.01254058957555
O          -0.51603180961764    0.53958845784626    1.44382163754477
O           0.84659853129065   -0.05975847716456   -0.44837267647904
O           1.85966163007725    0.95674091033399    1.51288381863762
H           2.56417832092660    1.29445319649727    0.92652093366705
H          -0.62149832463341   -0.36164476050576   -1.41465857442034
O          -1.56827084689851   -0.55587027243179   -1.55536925381132
H          -2.02242947364526    0.27673317285598   -1.30081404416173
O           1.02592021906814   -2.60048615689682    0.21825603674837
H           1.34467178044235   -3.07233631665621   -0.55313118652777
H           1.10326856171034   -1.64091766151328    0.00324998719150
O          -2.26220877058693    1.70392432554776   -0.28803648178566
H          -1.62902435777981    2.37334765285416   -0.57193585912481
H          -1.88060661207751    1.37959681364917    0.54270568251957
O           2.95226426811386    1.87110067890624   -0.72221272636603
H           2.77581198069052    1.10083843588868   -1.26983918008352
H           2.10203620333715    2.34125354589083   -0.66432263238913
N          -1.45097455005117   -1.78872611815533    0.72882945522217
H          -1.70295589999910   -1.44655417874761   -0.25719637598736
H          -2.21502119230453   -2.23698564037705    1.22101488968819
H          -0.60190812152979   -2.39094960026599    0.64003367488669
H          -1.12194369084265   -0.90011532430767    1.20724686174687
