    23
        -45.37060997  Gyration_radius:  2.38447356973 Dipole_moment: 4.123
 S           0.30388290731261    1.67298671060907   -0.89110991018640
O           0.35671479818379    0.29356577844892   -1.39177465625838
O           0.97829738318565    2.62279300428723   -1.71208153466530
O          -1.26334300198715    2.06348795179973   -0.96312587764691
O           0.61681836934962    1.69895224368600    0.53143300739712
H          -0.78409762111859    1.38690036417410    1.41004531838810
H          -1.25957963264776    2.71904350325912   -1.65273309655861
O          -1.64862484558209    0.99684313053084    1.66932384005702
H          -2.28906545066220    1.42062728165738    1.09248158533186
O           2.59308558726697   -0.08226609616496    0.35467063462060
H           2.47452966864746   -0.24596715172417   -0.58472327961435
H           1.99356823320874    0.66228793908801    0.55451511631239
O          -1.58551301825051   -1.56687077899892   -2.05160382114627
H          -0.92346498826217   -0.85637058389305   -2.03916225061268
H          -1.65426507452241   -1.85698669752097   -2.96165845954000
O           1.52826151365493   -1.99160619914153    1.87257110434813
H           1.65466966932869   -1.72209598229669    2.78386388462586
H           2.06879120336280   -1.36832574449070    1.32877883801341
N          -0.64594219852827   -1.19619038501940    0.54631256521169
H           0.09116983113800   -1.66018980977323    1.13247105448608
H          -0.16045343588324   -0.62942216585278   -0.20130521830734
H          -1.25034083688479   -1.85889678053936    0.06136381557663
H          -1.19509906032141   -0.50229954204813    1.11144733017840
