    23
        -45.37030192  Gyration_radius:  2.26557417726 Dipole_moment: 2.653
 S           1.24767285293376    0.70932495434979   -1.15990982943677
O           1.56038339009069   -0.53569053505869   -0.49223351493028
O           0.52308491249908    0.54822816585880   -2.40211895222675
O           0.57082530781113    1.64924948826693   -0.25861735229519
O           2.63009710660652    1.38123364461498   -1.53320875435624
H           2.37666119460389    1.94537668579530   -2.25635971703285
H          -0.91955200082658    1.45358963049503    0.00102101625615
O          -1.83316147830898   -0.45407264492933   -1.83569937998528
H          -1.01535265195495   -0.08171014008618   -2.24098145286772
O          -0.44345673407868   -2.16244512813214   -0.20653446578604
H          -0.12914246560735   -3.06213975769061   -0.30609455205788
H           0.35158183862305   -1.57903733119309   -0.31694956866853
O          -1.35934313532157   -0.63236786290053    1.86344518112548
H          -1.15153577182382   -1.37114453810976    1.26267792252028
H          -0.46485734499374   -0.28929023128386    2.17005736538062
O          -1.86289864678327    1.09019602115495    0.14596116196705
H          -1.74800458826014    0.38025614763017    0.96152657122226
H          -2.02138539995546    0.49721531985671   -0.70193195406342
N           1.05918716870138    0.33874564647902    2.23641635299448
H          -1.54357333166929   -1.27263013478877   -1.39666291569245
H           1.73518191741867   -0.37595081387870    1.99459276248161
H           1.02593379896170    0.97090952896094    1.43743274725578
H           1.41165407143568    0.85215387484673    3.03417133815182
