    23
        -45.37859028  Gyration_radius:  2.33472889247 Dipole_moment: 3.198
 S          -1.59365535559516    0.88908383419510    0.67305804565795
O          -1.47512379746203    1.26356457834622   -0.72784570132933
O          -2.06677472754472   -0.46110933136776    0.88256510792016
O          -0.35418271145606    1.16031963563913    1.40412045528458
O          -2.69638747978055    1.84479159988180    1.29434436640984
H          -2.46100854682216    2.71397989455912    0.98338111920643
H           0.74203500900064    1.89343808514801    0.30091013968697
O           2.70051209207662    0.17321383653953   -1.12243691816847
H           3.47033257105362    0.34480806057074   -0.57788806979128
O          -1.34185557970142   -1.25811474086838   -1.51339853298512
H          -1.83263320486384   -1.29973698034087   -0.67029551569770
H          -1.35137138558533   -0.29905327337564   -1.67971439158349
O           1.05598138163177    2.14020329425568   -0.59194138957328
H           0.24694823061585    2.04686951303736   -1.11539186554768
H           2.11008961784124    0.96866432915482   -1.01001574346799
O           0.25220075919329   -1.31222475514132    1.98750330400134
H           0.19498296970439   -0.33142423937304    1.93202778337069
H          -0.68012334643638   -1.56514183816491    1.97163894656366
N           1.03142403841413   -1.80097684199761   -0.49094202800092
H           0.80556836848690   -1.68085504744694    0.54391433634560
H           1.73799246988126   -1.06875387339472   -0.77246740460459
H           1.38501109547050   -2.73201561685274   -0.68295889764504
H           0.12003750177474   -1.62953012293577   -1.01816715607925
