    23
        -45.34183447  Gyration_radius:  2.65278639256 Dipole_moment: 2.810
 S           1.82620056191292    1.67597988732021   -1.23062708541246
O           0.71009494656572    2.47246509637166   -1.64217265646736
O           3.00796319434363    1.71090664383677   -2.01194986466056
O           2.22122851321045    2.14297783117798    0.26232587152603
O           1.37709205026688    0.25288593057738   -0.92963066119180
H           0.40155116305819    0.40057247327713   -0.54070016216377
H           2.74002405708899    2.94102337523131    0.19313444531112
O          -0.88471268013537    0.90641764821936   -0.17821679215465
H          -0.79690169750045    1.71414281578139   -0.70601289572345
O          -0.61426898713637   -0.68068470175233    2.15621213905805
H          -0.86170197244333    0.05279321668743    1.58081995662232
H           0.35843627151645   -0.65438817607753    2.20482219411250
O           2.09290128750560   -0.35963570866808    1.75386747314127
H           2.18376832784253   -0.87800606277610    0.94912064156208
H           2.18684121577186    0.56009430634271    1.48204279957002
O          -1.49669071261432   -2.72370214265379    0.63989298308034
H          -1.89191126923776   -3.37482825648293    1.22063240754698
H          -1.14190740218069   -2.02048339459258    1.23039793181218
N          -2.35860673632133   -0.87196530224498   -1.35694297339196
H          -3.36511122441629   -0.77212131575857   -1.37888766142016
H          -2.04040306349932   -1.10345741834474   -2.28902628743072
H          -1.52458107805537    0.26672570456924   -0.66610788250422
H          -2.12930475558148   -1.65771247003316   -0.74299391079686
