    23
        -45.37741760  Gyration_radius:  2.37830555954 Dipole_moment: 1.981
 S          -1.27866921519464   -0.76217751836301    1.04449852350672
O          -2.04314056630775    0.43861820695533    0.77361220923202
O          -0.75347763382080   -1.36526629094075   -0.17408561256903
O          -0.24948376788766   -0.54806168542127    2.04890607885392
O          -2.27105817205805   -1.83963338898409    1.65358178313540
H          -2.39976972059144   -1.56332077596444    2.55655265134634
H           0.23197583967261    1.02382331841594    1.68377063285123
O           0.34350371515620    1.87694051129175    1.21159459527382
H          -0.54163822220645    2.25257054842686    1.18313144558333
O          -1.92905000228755    1.64693847913159   -1.62493665545234
H          -2.03608532834290    1.21388240876025   -0.75280763946007
H          -2.81465839684421    1.75460407152434   -1.97270812708722
O           1.77864538381856   -1.83230222242071    0.57983419246444
H           1.66557667818743   -1.40899255800284    1.43751114737571
H           0.86839784554383   -1.89759253669293    0.23757382569194
O           2.92016594237357   -0.46815143664179   -1.42066926402307
H           2.64930612779714   -0.98489965013085   -0.62511215889410
H           3.21483936064952   -1.11258473531798   -2.06545645545003
N           0.54530072822345    0.72710853224050   -1.18479580590068
H           1.49891478609544    0.44574046096797   -1.50211271972882
H          -0.01944178473029    1.24160466450985   -1.86499213611063
H           0.01285216140943   -0.13887812246650   -0.92373484456060
H           0.60699425126811    1.30002971910070   -0.29915565591919
