    23
        -45.36995845  Gyration_radius:  2.60078411273 Dipole_moment: 2.420
 S           2.13438908813492   -0.29156421922773   -0.86023488760990
O           1.95780479704753    1.12901283609907   -1.11659579248906
O           2.07616168596677   -0.59903976107180    0.56696058775983
O           1.24040189338007   -1.12290380521413   -1.63849100940766
O           3.60963678961792   -0.65356164364234   -1.33213656788554
H           4.15265454387647   -0.01431414051680   -0.87902270245690
H          -0.69997135973048    0.52462689151929   -2.13153768818102
O          -0.59993427083071    1.06897647617884   -1.34613768191893
H           0.38233699382949    1.22657860672527   -1.28299361836543
O          -0.41204551550449   -2.93295070706965   -0.61938900197329
H           0.09589233277817   -3.71805365938487   -0.41067055895648
H           0.19986923013157   -2.34448577318216   -1.11666769498818
O          -1.86674668460109    0.79240438860111    2.62982252720535
H          -1.37397205610203    1.22399563372701    3.32949137841975
H          -2.02704706791332    1.47680716434601    1.94720867553825
O          -2.04607879274758    2.50870480054296    0.53973258868867
H          -1.48485065831192    2.14930773771308   -0.16692163995382
H          -2.86403153877027    2.78476352816075    0.12342191802753
N          -0.51619350354905   -0.64894953157431    0.78086389648335
H          -0.70697373883758   -0.01433850053442   -0.02423646662171
H           0.53644991377307   -0.62751589952611    0.89812988424308
H          -1.02928477216347   -0.30221733381922    1.61703211025319
H          -0.75846729947182   -1.61528307885332    0.49237173420401
