    23
        -45.37882832  Gyration_radius:  2.32743564746 Dipole_moment: 3.301
 S          -0.35532422635551    0.83802802598015   -1.66990524009889
O          -1.16262460448004   -0.37024678228777   -1.66165802463302
O          -0.54938159748105    1.66866519661008   -0.49417722563645
O           1.05187151876105    0.55089868178332   -1.92449743044760
O          -0.86404163074249    1.71461859773219   -2.89067098094392
H          -0.77211767967797    1.14363051870603   -3.64752139549167
H           2.14795788289842    1.22398907088879   -0.42124607832807
O           1.86637942405002    1.45106977422763    0.47754037969394
H           0.95117584715089    1.76493555695623    0.31611116267336
O           0.91268871577727   -1.89419819745387   -1.00075316878903
H          -0.03889851471183   -1.83628528613468   -1.18166680655392
H           1.23809130815275   -1.09311907036020   -1.46304902616684
O          -1.10081915912542   -0.77268789472517    2.58745380095358
H          -1.25685265599567   -0.15629110796719    3.30461243566047
H          -1.69361286549914   -0.47102223207833    1.84333791642355
O          -2.47349358623481    0.22180407282492    0.59481562079106
H          -2.36337913461660   -0.31591144871708   -0.20424570702181
H          -1.92091316828185    0.99648809153037    0.38267806398538
N           1.28858528476577   -0.94350974228633    1.43211811231623
H           1.99266416542199   -1.40595955909827    1.99689718618909
H           1.14352832605459   -1.45986104685547    0.51106244689106
H           0.36672107277836   -0.89842019338444    1.94583647127865
H           1.59179527718873    0.04338497378605    1.16692747739091
