    23
        -45.35638741  Gyration_radius:  2.54428657586 Dipole_moment: 3.594
 S           1.84932460358348    1.04841766211195    1.74580340496061
O           1.98001827094450    1.91899496824676    0.61201964272998
O           0.55461712750283    0.96099986071746    2.33684714752208
O           2.40583418854826   -0.33480348452792    1.41979653971122
O           2.85942250462463    1.53775308718535    2.84618711262674
H           3.65717793673817    1.76654822817285    2.37485995783833
H           1.85560709045943   -0.75304232830285    0.60887056000778
O          -1.50574275783060   -1.91323760884606    0.02934297467128
H          -1.88603366150847   -2.79014214571527    0.08724390844410
O           1.04109823319850   -1.16822117541165   -0.46978653243637
H           0.73519480153444   -0.31503955609912   -0.88374686883641
H           0.21787655205434   -1.58219325644558   -0.13679270976007
O          -1.68816850788709    0.81107809068176    0.80446974713460
H          -1.03261845396331    0.96602982776632    1.50398126695719
H          -1.79688104106744   -0.14916542041798    0.76053035285669
O           0.06680476239776    1.16667131422120   -1.16910994817177
H          -0.68010348646898    1.16944091757046   -0.52161779645989
H           0.76996306987468    1.67551631923296   -0.73525005597553
N          -1.90997021268684   -0.78307751935336   -2.36630470261240
H          -1.21524739717684   -0.04411726008370   -2.30618341657095
H          -1.72249906749240   -1.55516197573551   -0.87743449444002
H          -2.81555091360710   -0.33654486096988   -2.44174691397351
H          -1.74012365178730   -1.29670366403078   -3.22197916620854
