    23
        -45.37922903  Gyration_radius:  2.27217804191 Dipole_moment: 2.398
 S          -1.37215161107633   -0.34793248741261   -1.23134771389206
O          -2.54965775096788    0.40381347372627   -1.54898149721924
O          -0.15514701623151    0.44888581550967   -1.14013736933912
O          -1.52066113556416   -1.21728916061624   -0.06528174641962
O          -1.08697252652426   -1.33462369070090   -2.46348744801167
H          -1.95879620204338   -1.58398673048768   -2.75429975297734
H          -2.01327919163566    0.15151611292028    0.85278267334347
O          -2.02254554467211    1.09464966251568    1.10618037177130
H          -2.36237473287663    1.52933833650977    0.31688800604620
O           1.97033282107787    1.77273751940737   -0.21606383048261
H           1.18056837789387    1.55766662692522   -0.74405544513529
H           2.59682356265286    1.07267019900750   -0.42680096033934
O           0.68406901999280   -1.55973119417834    1.35533770780053
H          -0.19164940805114   -1.59467327224894    0.90868799994278
H           1.32330412100270   -1.58426434282231    0.61697080116548
O           1.89194518293214   -1.18161805809891   -1.04591149742528
H           1.11262966351804   -0.59201318115793   -1.17273372883787
H           1.80215587284244   -1.86860225241921   -1.70779514895601
N           0.54371399582474    0.98770212376485    1.90015196393299
H          -0.45074257775319    1.19517693640482    1.63427279314725
H           1.17907461511043    1.42303150060117    1.18160009358856
H           0.74649123885909    1.30982990868025    2.83970639295323
H           0.65286921624609   -0.08228382416317    1.80431735560423
