    23
        -45.37169542  Gyration_radius:  2.44861513365 Dipole_moment: 3.806
 S          -0.25975165414392   -2.01567910094464    0.65618457419289
O          -0.91049504805005   -1.95836536453300   -0.64923202702610
O           1.16309218736940   -2.21887387630287    0.59953190663721
O          -0.61305885114679   -0.84010659810746    1.45776330405500
O          -0.89626399304190   -3.26886975026970    1.38859197836523
H          -1.79026281830738   -3.25755703207509    1.06132977367312
H           0.77867759315817    0.05827917050555    1.77437985812295
O          -0.98796288839037    1.64985443033754    0.61788119566433
H          -1.08683604513496    0.74979405785621    0.99662876059791
O           2.46022859213986   -0.20096581348951   -0.55288331241705
H           2.19924641919127   -1.09328925623280   -0.24572911247941
H           2.38151335587075    0.33819440822771    0.25616387932184
O           1.52525443941554    0.69357533036014    1.85062670284607
H           2.07992906248036    0.35396427762890    2.55436637907356
H          -0.25196377301473    2.03241811702153    1.10691421184324
O          -1.78757052157436    2.36221919424015   -2.05866910789539
H          -1.78105905224981    2.33954127501705   -1.09299133705582
H          -2.57758314830425    2.83843837153398   -2.31578340363728
N           0.07574774407357    0.29588573468487   -1.51197759102646
H          -0.14175254577016    0.65380195583787   -2.43829619132853
H          -0.31115238918863    0.95677619444137   -0.80415362451215
H          -0.38507397302890   -0.64016777453352   -1.32696394710213
H           1.11709730825788    0.17113202870636   -1.32368286967637
