    23
        -45.35524164  Gyration_radius:  2.439182515 Dipole_moment: 7.299
 S           0.47150232305912    0.71612591386842    2.11234253733554
O          -0.94033560041256    0.99775087610108    2.14931179018004
O           1.22443896042672    0.86327527780623    3.29795855004627
O           0.65712874202359   -0.72599717052824    1.55390027390386
O           1.10388230886343    1.60052818724767    0.99489004293458
H           0.49771595246261    1.55366098529244    0.20972805014542
H          -0.09519034523681   -0.91203946172399    0.90116449720844
O          -0.34300621630846    1.33392693346048   -1.16233017858775
H          -0.57545110132484    2.17456200483936   -1.55967512740630
O           1.38640553043912   -2.15160872300820   -0.88321931260294
H           0.42298769486760   -2.19419771473767   -0.86408177269777
H           1.65073492471717   -1.97309994093544    0.02487584460206
O          -1.19730327211480   -1.09268240856489   -0.18604002563724
H          -1.12600286337981   -0.23917494842187   -0.64369381149893
H          -2.00201423356106   -1.03698909758362    0.37561448128812
O          -3.06824241018239   -0.49677864733418    1.60581987356824
H          -2.35660047927308    0.06289810931379    1.97856100837388
H          -3.84125734452171    0.06548971882178    1.53513548891799
N           1.70408499243767    0.27378847004054   -2.36092605044697
H           2.55833016899607    0.74007375380663   -2.08208314147655
H           1.72497301228477    0.15043032598775   -3.36516443559037
H           1.70669420865990   -0.65631274117259   -1.93045654865102
H           0.43652502707417    0.94637028742354   -1.70163204388881
