    23
        -45.37824983  Gyration_radius:  2.35322782891 Dipole_moment: 2.052
 S          -1.38051224629242   -0.87650852178495   -0.47470201189453
O          -1.37113199364773   -0.18470200245222    0.81542608876928
O          -1.47708436902059   -2.30476943347992   -0.37824420176001
O          -2.73434239732012   -0.39642233953360   -1.18916691674544
O          -0.29131623000424   -0.39784195310986   -1.31498542146715
H           0.48252539592209    1.18453317864370   -1.33908392162134
H          -3.14546388309981   -1.22253238462445   -1.42373332724316
O           0.69931742807550    2.05950662790489   -0.96010167388992
H          -0.18192061238072    2.45485979442273   -0.81027995990390
O          -1.91049589589858    2.20702560260923   -0.28246433338011
H          -1.82389639316221    1.36627946559577    0.20339878464094
H          -2.53649587817634    2.02220123218667   -0.98541974591564
O           1.24885124119857   -2.37610022455123   -0.43947731654320
H           0.88631454104531   -1.63855377860868   -0.96229003780113
H           0.45464352045187   -2.86619658967008   -0.19124037870678
O           2.70874271038996   -1.05712652497146    1.31304430333919
H           2.18303812195304   -1.66152403527822    0.72905648540414
H           3.55812136505870   -0.95525870195845    0.87991579389668
N           0.94343463752134    0.94103217442158    1.38816906723744
H           0.95540095220686    1.53287920145391    2.21160050461088
H           1.70491937596250    0.21417019405221    1.42423223491722
H           0.01766883022307    0.44249386250574    1.30408130324081
H           1.00968178917216    1.51255513619397    0.48226471094852
