    23
        -45.37493157  Gyration_radius:  2.39755832261 Dipole_moment: 1.871
 S           0.80796454265926   -1.31274331095261   -1.07229908260734
O           0.61866867048412   -1.55516505573379    0.35215919634926
O          -0.43437714153687   -1.11393565491200   -1.77864719364848
O           1.77012146613416   -0.23787465043985   -1.29702456520027
O           1.45682448557723   -2.63387460492100   -1.66170513617152
H           2.19925950532692   -2.80016285707662   -1.08764480132622
H           0.67362657780141    1.08552689289119   -1.59069986206158
O          -0.12126542094953    1.63690313957423   -1.45245536361313
H          -0.82740945998569    1.15288314070277   -1.89106172604548
O          -2.34550850880373    0.44275138333572    2.25658464718217
H          -2.37377083043212   -0.31430053013801    2.84429099110670
H          -2.55552697065036    0.09828037415590    1.36571348465923
O          -2.53213578559527   -0.64144547805330   -0.22722328107473
H          -1.73732233921736   -0.85086847546576   -0.76397554237426
H          -3.24455334047508   -1.15522411169591   -0.60978157182150
O           2.68642187635311    1.26756677572589    0.75504145233701
H           2.45061179124407    0.66543657951855    0.02077033342576
H           3.25874049646907    1.93366124607650    0.37188650093282
N           0.04210136555298    0.88845164667702    1.12162538645653
H          -0.77919404781318    0.94435192672853    1.75785610792369
H           0.24410136076562   -0.13066474185889    0.92156365494638
H          -0.17357106247376    1.33133233480615    0.19400909720556
H           0.91619277955362    1.29911403108193    1.47101726341594
