    23
        -45.38002647  Gyration_radius:  2.29637267733 Dipole_moment: 2.954
 S          -0.30416563568782   -1.48154136869201    1.19958067563284
O           0.64889523980606   -1.88692577418750    0.18631914582209
O           0.33077912989259   -0.84005637721827    2.33654369238253
O          -1.39766234746253   -0.68991672562927    0.65220990134081
O          -0.97647958314778   -2.81371298686062    1.73503259906869
H          -0.20504634877834   -3.33753735379669    1.92135529227034
H          -1.25039389163866    1.03447113370240    0.61221923156504
O          -0.89725954847734    1.92399665302655    0.40164013746210
H          -0.06519557790348    1.97450131210881    0.90353434047008
O           1.50109991266316    1.32896221211484    1.58513618859580
H           2.00941910101222    1.67040739174698    2.32248729550957
H           1.07362598009191    0.49155415849640    1.91498420702733
O           2.06302035173563    0.08703440567910   -0.80713622477953
H           1.64618068200810   -0.75652996131515   -0.51204075932702
H           2.11065563815157    0.62307535278952    0.00289011282507
O          -1.75876923160766   -0.93795355494534   -1.92623533508248
H          -1.59955801468930   -0.99592393891696   -0.95333365173709
H          -2.70982430595742   -0.87196656697918   -2.02895589732255
N          -0.04448718646713    1.11553508846829   -1.94608523101621
H           0.89179157668952    0.69834801784127   -1.61915976010713
H           0.06613960597800    1.73025500103460   -2.74360448003949
H          -0.69556444303882    0.32010892668446   -2.14859047892313
H          -0.43720111318983    1.61381498485321   -1.08879099160899
