    23
        -45.37876668  Gyration_radius:  2.27434058195 Dipole_moment: 6.348
 S           0.78297331836002    1.28678921295071    1.07819629176488
O           1.68026207119420    1.67984479837733   -0.00352203810746
O          -0.60092399973051    1.58813996683207    0.82096328344355
O           1.00233758506507   -0.11461635611828    1.44030156021259
O           1.21416429829412    2.14044723308412    2.33729957424152
H           2.16049396380101    2.03778695159955    2.35452798781481
H           1.05093607712102   -1.23602445915634    0.27101994633280
O           1.04133864291329   -1.86952256364783   -0.49125687323384
H           1.57342601647089   -2.61886865486587   -0.22000130877196
O          -1.54849677157336   -0.69038566175278    2.08861936586440
H          -0.58297457243524   -0.59600999876290    2.01211065750203
H          -1.87830013248269    0.20543165414945    1.96641313006659
O          -1.80020875480904   -1.72078139100148   -0.39895202956842
H          -1.87553648848262   -1.47786905623253    0.54856668224050
H          -0.88378826935651   -2.00796187459965   -0.51136762555171
O          -1.69798492891651    0.68945611955489   -1.45876272724441
H          -1.92582483612475   -0.22682252788501   -1.14976043488237
H          -1.50078749207702    1.18209039637358   -0.63851816236594
N           0.77643905736130    0.34593084237121   -2.04582246107986
H           0.97623345198969   -0.62729684539712   -1.76662249227581
H           1.22460100623088    0.96957333381205   -1.31100610350810
H           1.11818142702274    0.55157221302847   -2.97781272671327
H          -0.30656063981145    0.50909665728345   -1.94461349621622
