    23
        -45.37342563  Gyration_radius:  2.30556890437 Dipole_moment: 6.064
 S          -1.56082954956825    0.82704702955025   -1.24919435051276
O          -2.89307717811899    0.91473325302182   -1.75338255794352
O          -0.63379499605129    1.86392245796292   -1.65265107514713
O          -1.73552744967694    1.02935867491155    0.36229853388137
O          -0.94701886575376   -0.49940930277950   -1.35992306268995
H          -1.39382125784188   -1.51117542723202   -0.19739845577678
H          -2.68154397093707    1.12250843792027    0.36214166354739
O          -1.48527866860851   -2.17950433410656    0.53104742699914
H          -1.73260045988707   -2.99868048684291    0.09883222260423
O           1.66286011403685   -0.82510534813295   -1.15503685602258
H           0.71904605324187   -0.75729742250315   -1.42691189649946
H           1.94137846276387    0.10105354745140   -1.05119823078020
O           0.59658393265755    1.08972204598048    1.85053158023754
H          -0.32212699824975    1.16933644433797    1.55232779038412
H           1.11935140597996    1.47487750415447    1.11851501614563
O           1.66049103098329    1.83338227727964   -0.52203298054521
H           2.11007730169045    2.63333880989010   -0.79770766899609
H           0.76544801606812    1.85950460187123   -0.97308594885801
N           0.97784437355461   -1.45564485101415    1.27981158114016
H           1.56231541371314   -2.03528682570911    1.87032229458144
H           0.02323196911764   -1.86805737576706    1.14226322428363
H           0.85647557196681   -0.47522049922698    1.67460883455744
H           1.39051574891841   -1.31340323102224    0.29582290541463
