    23
        -45.37711257  Gyration_radius:  2.38474874045 Dipole_moment: 2.325
 S           1.49000581373785    1.46248190344764   -0.27753882396345
O           0.82035907359770    2.20310805534301    0.77065353800879
O           2.53993489596142    0.59231023813077    0.23692108060220
O           0.55771232117947    0.75041455291123   -1.13996891009108
O           2.20951922881299    2.52254732384610   -1.21329002062600
H           2.86255200778490    2.90707754415778   -0.63653244464025
H          -1.00283053333035    0.90468503173154   -0.70813422900415
O          -2.55742560442396   -1.65203492434314   -1.02446690134746
H          -3.07184240162359   -1.99830587582417   -0.29406896255070
O           0.13256185621570   -1.94094394998121   -1.31565547457792
H          -0.84372598588250   -1.99015242118238   -1.32390402635436
H           0.34353742414644   -1.02418853230071   -1.56501930273002
O          -0.65788356940623    0.38537757551856    1.98935962699600
H          -0.08526252763472    1.14886684380606    1.75587986294599
H          -1.38140124501436    0.45631244398842    1.34478421016058
O          -1.93678888139203    0.92395325327039   -0.37917326147993
H          -2.47177764196031   -0.69270483396164   -0.87541164679277
H          -2.25762439556206    1.80884512217955   -0.55810797629972
N           1.06598829786837   -1.38638725665472    1.06537199924553
H           0.67578778063410   -1.78269720429166    0.15221235797714
H           1.45160761133924   -2.10564826967510    1.66689109693159
H           1.80224751367872   -0.67848584723209    0.77839754461927
H           0.31474897129075   -0.81443078289447    1.55080067294829
