    23
        -45.36731355  Gyration_radius:  2.52509303928 Dipole_moment: 3.701
 S           0.16484129743833    0.73979903582930    0.24701535758465
O          -1.26114322632004    0.94975664650934    0.50525392966440
O           0.89872404293768    0.40673691584644    1.44506985754468
O           0.34881047020488   -0.25033691473915   -0.81882652682229
O           0.74779988003572    2.09126105624142   -0.28746137901225
H           0.39054027122715    2.11861151912092   -1.21349748296545
H          -0.35825493662329   -1.71096080109211   -0.65856595824316
O          -0.93808335280817   -2.50675171164196   -0.54644275543268
H          -1.29650762041383   -2.68850045652672   -1.41687893382839
O           2.90543711075574    2.09857511947090   -2.20222156108906
H           2.52353996375725    1.99434751439672   -1.32153874621602
H           3.31309342011250    2.96629678549517   -2.22222849919911
O           0.00934372680605   -1.30210305076343    3.20513753979331
H           0.40123406723817   -0.57669297621911    2.65708007779115
H           0.64449081366913   -2.01992795638750    3.16511380041388
O           0.20544996987054    1.55007635535386   -2.76104253992079
H           1.12911740657188    1.67790114926292   -3.02600053875489
H           0.18206889449103    0.67991824777859   -2.32172859550747
N          -2.03891412943328   -1.26328159861396    1.52914363694321
H          -1.34947786277107   -1.39582366704706    2.31672207154880
H          -1.79108895295092   -1.92313294519234    0.75475278682437
H          -3.00000112722335   -1.35892447103936    1.83682296552002
H          -1.83102015650649   -0.27684379601830    1.13432147339780
