    23
        -45.35190573  Gyration_radius:  2.49012351099 Dipole_moment: 5.444
 S          -1.36245706812768    0.71445983791622   -1.97220384573288
O          -1.21574601801228   -0.39013554498396   -1.04902241327630
O          -2.61765573433600    0.85382986094531   -2.60595698754448
O          -0.97676968630171    2.02058201065858   -1.18464079171840
O          -0.24801163481791    0.64410216155204   -3.03077267640755
H           0.62207285947713    0.79310087925002   -2.55612714841366
H          -0.94919508980443    1.81162493592965   -0.21514537799061
O           1.84647694889932    0.18307630380260    0.82142558676061
H           2.64536398543232    0.07019950294763    1.33758259476665
O          -0.75534931627796    0.91221019926728    1.17311437825332
H          -1.01599732702176    0.21151991359200    0.54024945780499
H           0.21399149212721    0.82856771076441    1.24159592465757
O          -1.17285446814744   -1.31497834084831    2.86539108796093
H          -2.09547078515843   -1.46939132078011    3.07287256094367
H          -1.11722732289462   -0.41299674403735    2.51269921429580
O           1.82442078308694    1.25689429238707   -1.62714944336805
H           1.87654387287468    0.82296919587713   -0.74457740865601
H           1.63272608862276    2.18369512840464   -1.46356964623295
N           0.55757090752416   -2.06041302896469    0.56583183235235
H          -0.09519356005036   -1.81020004355290   -0.17276579831285
H           1.43151240159712   -0.74307183529667    0.71330864422304
H           0.02141021514136   -2.13837887302293    1.42768947135787
H           0.94983846645754   -2.96726620180700    0.35017078418231
