    23
        -45.35935538  Gyration_radius:  2.39858742585 Dipole_moment: 5.194
 S           1.60993131284552    0.91982733929255    0.52197169509152
O           0.36081830808580    1.18748402518744    1.20140171142662
O           2.64667231609176    0.33203307768274    1.28796541221425
O           1.28734728635520    0.00931602639748   -0.69540817509860
O           2.11723318903634    2.23002051914165   -0.11455665228321
H           1.36235867583048    2.65159573586285   -0.61380037108103
H           0.32040157207746    0.20004577547861   -0.95287772205377
O          -1.16352591636444    0.64212753552208   -0.91557317965696
H          -1.08655412679182    0.83388764642674    0.03235778778726
O           0.66237501277671   -1.23069731485168    2.46569102057914
H           1.61788378915427   -1.11043243677055    2.49182189846546
H           0.31586727405600   -0.35243594699951    2.25881475228100
O           0.30061954674434   -2.61554837863890    0.13857536196653
H           0.95632861814943   -2.10607917017359   -0.34641105987658
H           0.35868668908541   -2.29920315236042    1.06073953540454
O          -0.04357750902017    3.09233892136368   -1.28072880539497
H          -0.51630213349259    3.64004488532371   -0.64917105050985
H          -0.57164594555276    2.28252901545215   -1.39976079015266
N          -2.18006585614437   -1.74356772884652   -0.90688952533547
H          -2.40882904018716   -2.16377641263765   -1.79828352241871
H          -1.64681367838726   -0.25902820503152   -0.97770039174265
H          -2.94831486045301   -1.91810774384354   -0.27175348376503
H          -1.35089452419150   -2.22237401315217   -0.53642443589453
