    23
        -45.35598278  Gyration_radius:  2.31703903328 Dipole_moment: 5.820
 S           1.88580200079547    0.14624056316658   -0.93851972492348
O           0.91567974098683   -0.10166432284840   -1.97979945074878
O           3.23261121855170    0.32225256097884   -1.32717427001610
O           1.37518612005166    1.40237098183005   -0.15142782810958
O           1.79403008351673   -0.98204249671004    0.10841462433278
H           0.92059004552961   -0.88153587866093    0.66777438678054
H           0.44045733341241    1.56816449857382   -0.43898079344704
O          -0.38394741610937   -0.73623203050976    1.32821162329461
H          -0.97147500103691   -0.81092911015272    0.54502809948859
O          -1.40072247513456   -1.01350934124650   -1.14158801580180
H          -1.33224867774305   -1.97789407538547   -1.05776684726538
H          -0.56758413078995   -0.76098696567109   -1.60023619654444
O          -1.09792817348443    1.74356139749808   -1.01109082607870
H          -1.49218278472137    0.85617554755732   -1.00316624411780
H          -0.93152558657442    1.93970106971339   -1.93691959486178
O          -0.08335549989606   -3.25604078329260   -0.23991132623613
H          -0.22437783276911   -3.18836308328286    0.70821940858619
H           0.79339102153798   -2.89171453900914   -0.40121360501722
N          -0.60897434956606    1.83890695764063    2.03174997572243
H          -1.16458112704963    2.27721081070254    1.30659564174016
H          -0.47861748851151    0.19345264645338    1.66937036568272
H           0.34153183337812    2.17455907442761    1.93085031499317
H          -0.96175887437603    2.13831651824244    2.93158029254796
