    23
        -45.36995846  Gyration_radius:  2.60138995413 Dipole_moment: 2.426
 S          -0.61179786918036    1.86960847629890   -1.23198743201494
O          -1.80093261558165    1.71688529769989   -0.40881814239089
O           0.58086835653471    2.11767072636626   -0.42535064513117
O          -0.42636887734105    0.77972824326520   -2.16682616792708
O          -0.83591603299448    3.17882355283865   -2.10709857380763
H          -1.06199174837164    3.84284149827636   -1.46154424330076
H          -1.73606409277385   -1.12797723199593   -1.00658276049223
O          -1.61878056735658   -0.82707674788664   -0.10166839228508
H          -1.80451410356903    0.15127799915239   -0.14493300825636
O           1.40402996829529   -1.18778700502327    2.76637738546646
H           0.46386474358126   -1.46349052294760    2.78069001994738
H           1.50054321604500   -0.53289366863688    3.45952478334490
O          -1.23345259113926   -1.74913611629236    2.49085502765692
H          -1.51245002671493   -1.37556060656342    1.63867797419923
H          -1.61491208514266   -2.62698544630511    2.54070890427517
O           1.77731941991596   -0.68834001948175   -2.34709845402698
H           0.94044806466465   -0.17620449209188   -2.42123016846617
H           2.43409094919561   -0.18212549803992   -2.82700674220781
N           1.05771208610103   -0.35874178114578    0.21391407139702
H           1.59768758214614   -0.70991916173801   -0.59927293794302
H           1.00002276358972    0.69298616662081    0.10097137189991
H           0.07423529954916   -0.69124092622028    0.11628369155840
H           1.42635818054902   -0.65234271615888    1.14141444850921
