    23
        -45.35856032  Gyration_radius:  2.43601129608 Dipole_moment: 4.840
 S           2.28282419427882    0.39116976294045    0.18516793531981
O           1.67971547691692    0.38787172871410   -1.13299277587667
O           2.73403474321099    1.66485238811036    0.65670736922988
O           1.40312976563634   -0.28575738723896    1.16603919702147
O           3.57058291618294   -0.54623460633253    0.07588224886953
H           4.18231596285045   -0.16378076207668    0.69823751749775
H           0.63503023924914   -1.35111652009963    0.78238512952509
O          -2.19682681773726    0.65825366416954   -0.70678178969515
H          -2.83917329235937    1.27719408831023   -1.05556765307242
O          -0.06829831905745   -2.09581808192617    0.41166228374741
H          -0.95263745250078   -1.86924373711249    0.83930667890544
H          -0.18688178356705   -1.80273749763774   -0.59977035431932
O          -0.35819093511279   -1.06498981824753   -1.84764135232835
H          -1.08687779058787   -0.44658342377536   -1.65853909079761
H           0.46602652837481   -0.52495952518718   -1.76538770602532
O          -2.44026166120623   -1.30398734443459    1.11379325596618
H          -3.15446480222215   -1.88665859963560    0.84985471492877
H          -2.45429376095685   -0.53706252961901    0.50095497440928
N          -0.20207310816967    1.99166126036839    0.34920139435518
H          -1.46012470091953    1.21302865158262   -0.28820100275874
H           0.52275506644208    1.90926733573255   -0.35825192508709
H          -0.21329831903930    2.95602633478985    0.65960191854005
H           0.13698786029920    1.42960463883267    1.12433907167001
