    23
        -45.35160181  Gyration_radius:  2.39768489902 Dipole_moment: 5.936
 S          -0.09958793501247    1.59680725440361   -1.70996853281099
O           0.37720109487968    2.26930287124968   -0.53639461043439
O           0.54202787533515    1.88843151516168   -2.94093033410239
O          -0.03400256390259    0.04366008518455   -1.43085945704748
O          -1.62394289276783    1.76437021518241   -1.84896103224553
H          -2.01028142645323    1.45207253439705   -0.98359039322673
H           0.87635021633817   -0.21513695506922   -1.13760529036664
O          -0.87175190177017   -0.81464348857112    1.69977940556915
H          -1.10203442225702   -0.95804613570456    2.61885546968441
O          -2.59820285252842    0.71329554044196    0.31345959187764
H          -1.93120498599433    0.17927009440432    0.80364901302136
H          -3.26865832385890    0.09886606763820    0.00744960384704
O           2.21233040562472   -1.06605681128442   -0.63025526622295
H           1.60105040650212   -1.78897688550122   -0.34324465485982
H           2.70049349085764   -1.39611369921985   -1.38692232071275
O           0.11599411244158   -2.59979210736371   -0.10349586355131
H          -0.36147036083073   -2.32248634171518   -0.88994489796465
H          -0.26737478654793   -2.06939187416953    0.62235351996289
N           1.23702368543905    0.69231847969231    1.61832634933905
H           0.94424388658110    1.39485925569797    0.93477238402347
H           2.00211513586301    0.17987259413430    1.19425786352685
H           1.59525161568546    1.18002268994763    2.42941567957745
H          -0.03556946360735   -0.22250490894305    1.69985377312112
