    23
        -45.37906168  Gyration_radius:  2.26500287663 Dipole_moment: 6.083
 S           0.33914843636319    1.08501636229705    0.93324638659564
O           0.34399248902809    0.08029504918731    1.97387517961067
O          -0.99952016541588    1.43455070994941    0.47536168198439
O           1.01318942088312    2.36812349862279    1.51819705545996
O           1.15987536152621    0.66482460132021   -0.21913279299242
H           0.31621053729453    0.13233401067829   -1.51182325049434
H           0.90516670937131    3.02527084867547    0.80271425147181
O          -0.11748904166929   -0.35573406463937   -2.25621054622172
H           0.56091268797796   -0.47389700108755   -2.92379525578423
O           0.27001961779265    3.37067306359129   -0.82331141617653
H          -0.46468690432107    2.79494357960090   -0.54111001435815
H           0.81982604239870    2.82802634201329   -1.39458495178582
O           1.65604671985381   -1.81339317472830    0.55892549828253
H           1.49278377183402   -1.62641657939372    1.49205473179893
H           1.68466863846265   -0.91004835280577    0.17222036761537
O          -2.03970545965882   -0.84546839738805    1.30249978895521
H          -1.29147036612124   -0.72030076998552    1.91538674423350
H          -2.07474113097112    0.03399251531394    0.87994636606358
N          -0.73002608038767   -2.24906976587652   -0.48315101090519
H          -0.64780408313270   -1.62320940701555   -1.32156485184124
H          -1.37555485746634   -1.76122916935296    0.22281148118833
H          -1.06246495907285   -3.17540793365258   -0.72644049938439
H           0.24162261511091   -2.26387596554845   -0.04611492369512
