    23
        -45.36948852  Gyration_radius:  2.28945579648 Dipole_moment: 6.845
 S           0.64709939887608   -0.87856752365301   -1.87236001841858
O          -0.47779876941911   -0.28018552398288   -2.54605502485090
O           1.56908954620036   -1.61379231235597   -2.67429223199585
O           1.53389499046982    0.39441659657627   -1.31967206333259
O           0.24677155246987   -1.54079393718029   -0.62484780170125
H          -1.11401735312404   -1.27462049380302    0.15599815542969
H           2.00470406647036    0.53425039408014   -2.13340005848039
O          -1.86956775888488   -1.06984756708472    0.77277200028198
H          -2.30731055489598   -1.90624952297824    0.93595572276284
O           1.98148184421345   -1.00672125389455    1.22855791384996
H           1.39875441354615   -1.35583506615637    0.50811566195909
H           2.66166673146194   -0.50466365248177    0.77454917111121
O           0.04469016637310    2.20674419103030    0.19559969175414
H          -0.82153798609542    2.00228679882915   -0.25576371977122
H           0.70518116459894    1.78258410391901   -0.37241397016670
O          -2.03336788447530    1.16116545868255   -0.97754532007477
H          -1.53718937096360    0.67599039946928   -1.67513963539482
H          -2.34962299101913    0.47415379023166   -0.37791967340731
N          -0.06179168429888    0.44402783333224    2.09045704055936
H          -0.87186379923662   -0.14376422011455    1.80072117693554
H          -0.02385899711711    1.27785027139495    1.39577190901132
H          -0.13911952715737    0.74693383545488    3.05433389544704
H           0.81371280198733   -0.12536262931702    1.91657718848327
