    23
        -45.35094064  Gyration_radius:  2.37599989189 Dipole_moment: 8.135
 S          -0.75489136426853    0.34616334019760    2.17953444982155
O          -1.06653822437367    0.87538707304002    0.87722674706848
O          -1.79873169834585    0.30371817426627    3.13259730923968
O          -0.13761685498701   -1.08309778925656    1.96233087173082
O           0.45625472413250    1.10880409827657    2.76363262125869
H           1.20030619635590    0.94512458645807    2.12707480414516
H          -0.35168990937371   -1.41947445818521    1.05371406819267
O           1.46151633850542   -0.35563178796273   -1.39316579974090
H           2.05053087293457   -0.42347490407007   -2.14586823604520
O           2.28919684874302    0.29543091172764    1.10289063596520
H           1.99517043367141    0.11801155022964    0.18399029298492
H           2.43790873139171   -0.56100506079026    1.51060805577760
O          -0.37815423902573   -2.05120331925168   -0.45891551204786
H          -0.01478114774833   -2.93893469475317   -0.45446584372147
H           0.28848448387843   -1.46301658329338   -0.88366343133934
O          -2.46318850802443   -0.20459237207919   -1.29914434043582
H          -2.22222120417208    0.26873615642603   -0.48996816414203
H          -2.06163047172129   -1.07256314377250   -1.19832520586390
N          -0.21263387822422    1.56264545362529   -1.77705610074887
H           0.82604635809521    0.43383369473809   -1.58891749414769
H          -1.04760516972767    1.12714953551882   -2.16388790973390
H          -0.43439828383313    1.73902254519309   -0.79943621473333
H          -0.06133403388327    2.44896701371568   -2.24078560349872
