    23
        -45.37876668  Gyration_radius:  2.27424050928 Dipole_moment: 6.346
 S          -1.40483834738589    1.00951337416333    0.66194992549484
O          -0.47890465355979    2.04329063076643    1.11302366224056
O          -1.47832599987857    0.88282189734786   -0.77001054853805
O          -1.11870663673834   -0.26031826283080    1.33187407485488
O          -2.83759955390061    1.45679931452511    1.15876913876393
H          -2.68953719763348    1.68449362508045    2.07119897955699
H           0.40730904038582   -0.80539756988910    1.37506814971104
O           1.35594869199869   -1.09027663837599    1.33877643665443
H           1.49299809160508   -1.65405544593865    2.10138957990979
O          -1.79199137435407   -1.87306218610426   -0.71811211105946
H          -1.63745964429218   -1.42930038700244    0.13410415341353
H          -2.09829459239023   -1.16568948383799   -1.29426743417017
O           0.84280016128981   -1.97855335726401   -1.31695400579258
H          -0.12078913564453   -2.12754551481118   -1.20794096164727
H           1.18230961703117   -1.87073838132511   -0.41802805114253
O           0.80526564990534    0.52568741053459   -2.13590451669304
H           0.87951304510526   -0.45866066635503   -2.02439982601016
H          -0.11244802042678    0.73299010090680   -1.87280603021438
N           1.79755098029860    1.29170621938369    0.10335766617482
H           1.49809451924239    1.02265594396348   -0.92011447385916
H           0.93456437907491    1.72981715998384    0.54275136161396
H           1.97769779422850    0.41644809048261    0.61962567256531
H           2.59484321614116    1.91737411664163    0.12664915823254
