    23
        -45.35446548  Gyration_radius:  2.32877040695 Dipole_moment: 4.247
 S           0.67341304278327    1.70397160269170    0.37422081222623
O          -0.23750136552508    1.06635326338323    1.30378139595983
O           2.00666090630822    1.88620715585400    0.80745453281691
O           0.64237914818343    0.95754736285359   -0.95961977883227
O           0.05041503126007    3.09789535260006    0.01614135482452
H          -0.88809706923261    2.94419497823025   -0.18702560273567
H          -0.17035301494091    0.31483284468592   -1.06547703354157
O          -0.54430909657043   -1.66466199805035    1.13356213552364
H          -0.65880236709215   -0.88276092191938    1.68562120911085
O           0.82538051820928   -2.37805855217180   -1.86015391510149
H           0.13989285548455   -1.74077793769845   -2.08113993710640
H           0.42769733133557   -2.99138104091896   -1.23767993613755
O          -2.38567693559517    1.83334025227416    0.08288493032324
H          -3.11008977352945    2.19635192787458    0.59648515011264
H          -1.73384474162849    1.46535283852888    0.71974963107595
O          -1.34132972264038   -0.57446741012605   -1.07311482093553
H          -1.13649861852699   -1.09290900504089   -0.23014181848003
H          -2.06273812754284    0.03359689210493   -0.86942382609918
N           2.02925938614863   -1.20702691561279    0.58315882974842
H           2.05121913248146   -1.39886032682243   -0.41575416740334
H           0.43749692002535   -1.66595647580654    0.95903594539933
H           2.81167182766620   -1.69131808935669    1.00595833352588
H           2.17375472296376   -0.21146577753307    0.71147656572766
