    23
        -45.35605608  Gyration_radius:  2.57582194648 Dipole_moment: 3.513
 S           0.01428867558131    1.99080909525564   -0.63673113567573
O           1.20960654863249    1.29533903236316   -0.22730313831965
O          -0.42452300193086    3.07199262727777    0.16300512975256
O           0.17515703415820    2.47361442014376   -2.09791192409436
O          -1.12999023746080    0.92787249835369   -0.73575830551058
H          -0.68605831523731    0.04834759615564   -0.92854127871849
H           0.44857949209607    1.71653708559256   -2.68529355066153
O          -0.39097248532872   -1.67003166420948    2.84814509666964
H           0.31066531562588   -1.79098221854570    3.48981177728281
O           0.62936694964260    0.31401546163480   -3.50288867676972
H          -0.13324989485807    0.13416746147664   -4.05744856360818
H           0.65439681008658   -0.37904444481068   -2.81885245729352
O          -0.01736391048296   -2.96530259127358    0.56407194370820
H          -0.13962287168455   -2.50404799828999    1.43046440158288
H          -0.81445527175360   -3.47906439941978    0.42586611174492
O           0.43195073433770   -1.05873023749881   -1.17782002451535
H           1.08087431164909   -0.47930060006405   -0.74232847621196
H           0.29924308042843   -1.83439359201976   -0.56853535932607
N          -0.29649939103502    0.95058133973196    2.25615548407009
H          -1.11227513030689    1.23513378861013    1.72574056613805
H           0.49313191713684    1.07008762325988    1.62849980363385
H          -0.18537361722371    1.62908080032004    3.00077829676712
H          -0.41687673213706   -0.69668108400866    2.64687426941605
