    23
        -45.35816412  Gyration_radius:  2.3382679668 Dipole_moment: 5.126
 S           2.05193055446665   -0.16625049067285    0.43055107924203
O           1.07717726139335   -1.16507996190712    0.03699097448495
O           3.33458317916205   -0.31120700472420   -0.15451044076040
O           1.44403988507772    1.23579906146605    0.10536007551257
O           2.14144882333493   -0.10570712480113    1.95363971227944
H           1.22603817267158    0.22701300764776    2.25646276909575
H           0.90352627982906    1.22029128412688   -0.73608734717713
O          -0.11294832636125    0.88497574905340    2.55663967784563
H           0.10822991424916    1.80721302963545    2.70271942626987
O           0.02678270202079    1.19041072500780   -2.06365738886823
H          -0.09047961664320    0.21922580280061   -2.26267253226002
H           0.54285534758437    1.55125152855794   -2.78726117223698
O          -0.10131663874523   -1.40524497055787   -2.36711687015516
H          -0.92890696249264   -1.74738257733644   -2.00921402403941
H           0.53985535682281   -1.52016533485184   -1.64260537316364
O          -1.50116769840279   -1.96858473504191    0.11769465201617
H          -0.55889316788016   -1.72688555977882    0.19494394695521
H          -1.66436090652208   -2.62150573825823    0.79954157593955
N          -1.76446551736794    0.91693569819875    0.49551620694147
H          -0.73995765068805    0.87508113736733    1.76212215881324
H          -1.92531236089458   -0.06983023370622    0.30304554270264
H          -2.66387364229771    1.35751122478269    0.64098671783767
H          -1.34478496835456    1.32213547302880   -0.33308935734187
