    23
        -45.35096062  Gyration_radius:  2.71694810828 Dipole_moment: 8.134
 S          -0.41158190541919    1.20216683340675   -2.84306159549400
O          -0.59474670500952   -0.10587554171341   -2.24110297706950
O          -0.71600329884309    1.33992537258034   -4.21462325942379
O          -1.25488273967975    2.22978494060882   -2.02920814735397
O           1.04076534363826    1.65232456939886   -2.53956183711847
H           1.55214825845143    0.87865589856788   -2.13511055990349
H          -1.26673769246710    1.93245695482679   -1.09134267748791
O           1.42093634063396    0.29705040132740    1.13581248674988
H           2.00174306233371    0.83743057070796    1.67233037739299
O           1.96243048738342   -0.44739660268282   -1.41649470597600
H           1.13076003156244   -0.87097948435312   -1.67232340798963
H           1.88022699141067   -0.22670924582454   -0.46640661314554
O          -2.20308955340521   -0.92490104709692    2.01359664716195
H          -1.91639089747938   -0.22505908591298    1.39787507382227
H          -3.10836972563783   -1.13552950407884    1.78189482849584
O          -1.06270630493981    0.78908898772982    0.17614572696114
H          -0.17090962265262    0.78055181905514    0.57879281287724
H          -0.99845249750535    0.18999103348334   -0.59451673510898
N           0.53709427852329   -1.72908043805131    2.56624854179236
H          -0.46838145102307   -1.57694372612052    2.49045108412033
H           0.73856211606320   -2.64217792437972    2.17805226365868
H           1.13937178143970   -0.49208917157738    1.70096881822149
H           0.76821371249091   -1.75268561990827    3.55158387478184
