    23
        -45.37759530  Gyration_radius:  2.35740685057 Dipole_moment: 3.081
 S          -1.56297099555062   -0.06042320931623    0.84514655054293
O          -1.42392021481331   -0.68317029192571   -0.47022612790618
O          -0.59026393882645   -0.55870508430918    1.79664216608185
O          -1.58165363152536    1.38563472734517    0.74197287360618
O          -2.97975525576047   -0.50873682933324    1.39772567978958
H          -3.61216853997360   -0.16248012430614    0.77415146250738
H           0.56750907787465    2.13103496981262    1.40068884155449
O           1.16247324408718    1.37493902247161    1.40913545471204
H           0.62391354431851    0.64522408736499    1.77864461080700
O           0.28074117554070   -2.65722844320106    0.35714583115179
H           0.11188430986173   -2.04133220462956    1.09280152194906
H          -0.43903308640413   -2.46266167356502   -0.25575821750766
O           2.43392013236547   -1.87082100114891   -0.99903271538216
H           1.68888430994427   -2.30582524456634   -0.51475451169688
H           3.19467667828299   -1.92617117930849   -0.41876376327501
O          -0.52875590150119    2.54307331377116   -1.44731645414174
H          -0.96022551421538    2.15044744622001   -0.66158892309537
H          -1.06945831261992    3.29358212639846   -1.69490678807005
N           0.95681595722202    0.34428947324367   -1.05098357786421
H           1.17095359694511    0.81301550332630   -0.12890361222200
H           1.65574580757118   -0.41610791099985   -1.23051530205579
H           0.00391886679442   -0.09068639053244   -0.94903974812193
H           0.89676869038003    1.06310892719372   -1.77226524135327
