    23
        -45.37669613  Gyration_radius:  2.30762334019 Dipole_moment: 3.993
 S           0.83247554062126    1.09439073107276   -1.54936269042256
O           1.25879953453280    1.56457781989530   -0.23535681756783
O           1.17221097184109    1.93556734269051   -2.64772978162371
O           1.68638706721980   -0.27095505134447   -1.78931771167683
O          -0.55305796694845    0.63390581886027   -1.50523600748209
H          -1.20226657759177   -0.69260097372053   -0.85525504900850
H           2.16688437474432    0.00296129966976   -2.56302178563804
O          -1.57853164190440   -1.49463097259822   -0.41242387676129
H          -2.30949397326868   -1.77969219802296   -0.96233182384632
O           0.99172794866417   -2.33755583303515   -0.02832790656612
H           1.36651023195255   -1.85226333469626   -0.77618388776162
H           0.02686962040990   -2.31676512928468   -0.16511471975186
O          -1.62967052691114   -0.03649032513094    1.95282995706813
H          -1.73722091501475    0.85323191242943    1.54651625284677
H          -1.86579360839781   -0.66406257165997    1.24954963651551
O          -1.43754504989197    2.18930044010107    0.47864681452803
H          -0.63053248218471    2.67901951173599    0.65637190055223
H          -1.24653307118656    1.69048828050122   -0.33838189589493
N           0.95748102791227   -0.24232179187359    1.61429008816782
H           1.13729352817055    0.52793813979632    0.90123833206904
H           1.57986378954920   -0.15477903268572    2.40946071279153
H          -0.07269005780033   -0.16810948276869    1.90430564343520
H           1.08683224548015   -1.16115460992960    1.11483460603158
