    23
        -45.36606594  Gyration_radius:  2.47428105545 Dipole_moment: 5.056
 S           1.01711967543378    1.89185838516274   -0.64743832243756
O          -0.34977084500350    1.52537922307595   -1.04207608573329
O           1.44109776513366    3.17752553597630   -1.09690228044646
O           0.92714920854715    2.01894562406299    0.97217762710129
O           1.92682164223797    0.78429374289070   -0.87652225854136
H           1.78020361924079   -0.64183674280025   -0.28627192005712
H           0.99709310703721    2.96480236964350    1.03710054882905
O           1.59431337655050   -1.55924946424384    0.07487227064739
H           2.30244545487308   -2.11446544348022   -0.25366478877116
O           0.66211659709234   -0.37728752879913    2.41944474940826
H           0.76523656354599    0.52917720824455    2.09875042157898
H           1.12275903107699   -0.92811393157240    1.76708489477078
O          -1.53327352971901   -0.06601541624462   -2.96944833288135
H          -1.76639643274190    0.29925975274547   -3.82342532433464
H          -1.11363113691095    0.65482851011033   -2.46960148275116
O          -1.87472505062857   -1.10056207317770    2.11313818308198
H          -0.97873387272030   -0.77903629896924    2.38011952198240
H          -2.07485628312047   -1.84634219523695    2.67962713459828
N          -0.98675746280447   -0.91361989486207   -0.41103350958718
H          -0.08121358499250   -1.41228200621089   -0.32989052702044
H          -1.49329788717842   -1.18760523164026   -1.25412915774361
H          -1.53471987992958   -1.03961484110251    0.46692161229096
H          -0.74898006497864    0.11996070639794   -0.54883298396827
