    23
        -45.38062462  Gyration_radius:  2.25471276149 Dipole_moment: 4.374
 S          -0.68004500480708    0.40127813676331    1.72256799745451
O          -0.67340705972936    1.55116929009412    0.82518849342609
O          -1.11359032810231   -0.81011111363040    1.03234280943296
O           0.55639885830303    0.24126344370302    2.44649279802719
O          -1.80182312149010    0.68398466322426    2.80793774140826
H          -1.31695088870356    1.18909772609259    3.45165775630049
H           1.88867083703239   -0.11021269493495    1.41445096634892
O           2.43545627258572   -0.31922675335400    0.63085941351919
H           2.05045718298286   -1.12344638891012    0.25899354131680
O           1.38622111931472    1.58598792260409   -0.86081097404110
H           0.67752367887331    1.79616905253969   -0.21732892512880
H           1.99306064454624    0.99059697401909   -0.35561061739695
O           0.54302855150840   -2.14913625425151   -0.44505338783130
H           0.40443675849477   -3.08599698349555   -0.29938954150666
H          -0.07295083134617   -1.68091184250606    0.17790792566597
O          -2.24919491124213    0.46595629845898   -0.97810496165921
H          -1.86637119534330    1.20260857519746   -0.46388850867260
H          -2.20850085009788   -0.25348589928978   -0.32387525767896
N           0.01006852748272   -0.12968415410690   -2.20405878247314
H           0.27782949440671   -1.03330704390417   -1.77741658464474
H          -0.97684565443780    0.10191746532181   -1.87441146240747
H           0.65224062487878    0.63592483689802   -1.75410314271330
H           0.08428729489636   -0.15043524655419   -3.21434729673916
