    23
        -45.35727223  Gyration_radius:  2.44587831884 Dipole_moment: 2.696
 S           0.71469708675529   -0.90303432673082   -0.24325949530630
O           1.30608000151560   -0.00699055898287   -1.20442569598746
O           1.56706916286251   -1.92328047993978    0.28266962572194
O           0.16775111308952   -0.02900905962407    0.92842947232728
O          -0.56097487817678   -1.51228615407479   -0.80960386300710
H          -0.90775018197561   -0.77952582786133   -1.54319865367917
H           0.91778969947746    0.62480770913201    1.11633315292315
O          -1.12838966868824    0.34233050465550   -2.31610423589897
H          -0.19725100030774    0.60871315450915   -2.34469927579875
O          -3.09622799188746   -1.07881838114818    0.38150298846180
H          -2.18441369501959   -1.35304267632316    0.21444829417646
H          -3.64831256808665   -1.63457253947521   -0.17190965739028
O           2.26568412511454    1.40125678127097    0.98246425631503
H           2.32176806238071    1.32480824027682    0.02085636092840
H           2.91257497737762    0.74670549920017    1.32896557801276
O           3.61322153900316   -0.81081037037555    1.61442901158422
H           3.66201479441421   -1.23154580763241    2.47496724783394
H           2.98374925516195   -1.34031887993426    1.08681644568800
N          -2.18514460819760    1.60398102356112   -0.29455891064160
H          -1.58629634739414    0.93884845267138   -1.62656189674999
H          -1.43119820215851    1.74992601502155    0.36656811536505
H          -2.76513476593271    2.43305726426902   -0.31007188128566
H          -2.74130590931810    0.82880042759883    0.06594302641235
