    23
        -45.35468264  Gyration_radius:  2.52827472659 Dipole_moment: 9.060
 S           2.52055430696932    0.31493521096051   -1.16681140445601
O           2.14637400507059    1.23029848341909   -2.20952280834323
O           3.90812167755718   -0.00300600191098   -1.04181556394531
O           2.17830052721306    1.13244961766860    0.25086577870852
O           1.60394515614477   -0.82338532371270   -1.04666792359238
H           0.43387049891377    0.25673137681475   -1.17286006907512
H           2.95631134303617    1.67601755052670    0.32675539062980
O          -2.32333446065329   -0.72845077412772   -0.83811865015458
H          -2.88097537405018   -0.80374412219879   -1.61329960940244
O          -0.18430392256705   -2.12640958089556    0.37021259411621
H           0.56181887242946   -1.89455294979692   -0.22401330959325
H          -0.98952070268837   -1.92287638856651   -0.13247090105232
O          -0.31658089801463    0.89647229360482   -1.18904000594263
H          -0.01507710294288    1.54474167257621   -1.83234438754470
H          -1.60223968415401   -0.08772071502371   -1.07305216535701
O          -2.56831630237007    0.61782027200214    1.50985874907341
H          -2.63177348881036    0.18493276302129    0.63405515181229
H          -3.15392573434051    0.13469358414120    2.09498424210179
N           0.07593621707739    0.09820457935083    1.69476352556080
H          -0.88048220333330    0.51949401462944    1.65966073247943
H          -0.00769371794328   -0.88630952420606    1.24297106226206
H           0.74737339735685    0.62843256619129    1.10878014743074
H           0.42161757002607    0.04123138563746    2.64710938420753
