    23
        -45.37155487  Gyration_radius:  2.42821967205 Dipole_moment: 4.205
 S           2.13632135489097    0.98490102320624    0.57039765412105
O           2.16875208554739   -0.47498580968295    0.60217383449999
O           3.06642723331126    1.63150320091842    1.43796162834836
O           2.59339518337744    1.38483044645485   -0.92949186155645
O           0.75195935026593    1.45217004682022    0.66146187776486
H           0.34229920091548    0.84291275669059   -0.74639292531582
H           3.47611749036900    1.69616194305797   -0.75930416416221
O           0.05688024315698    0.47209233556000   -1.62043835779216
H           0.79970469332904    0.64861698829530   -2.20136944628973
O          -1.13094625083741   -1.95107772336621   -1.27168342806032
H          -0.59368332876645   -1.19259542878004   -1.57432966321902
H          -2.02620195808410   -1.60439386883936   -1.19983835629434
O          -1.45807166289683    0.41109059174210    1.75056053215023
H          -0.69152444519822    0.97980014988676    1.54060888269917
H          -2.03219275461113    0.47210967686624    0.96493405855506
O          -2.56780656093104    0.59174500615080   -0.78205881793156
H          -3.03710977934449    1.41191887513983   -0.94045140394668
H          -1.69143981744729    0.68916031076322   -1.19388536301081
N          -0.03649872109548   -1.71929567169288    1.15541767730551
H           0.08085272906333   -2.49359238083472    1.79839500932759
H          -0.44980010006882   -2.02367539689469    0.23940523624153
H          -0.66426380588525   -0.95452680565642    1.54984511670392
H           0.90682960091079   -1.25487025580274    0.94808225986732
