    23
        -45.37448848  Gyration_radius:  2.38673001007 Dipole_moment: 0.731
 S          -1.30523598346293    1.23513407105689   -0.42249382563224
O          -1.20604297226947    1.50093611235695    1.00178013808425
O          -0.02038952201619    1.24493107973693   -1.08739784667787
O          -2.06928057701586    0.02008708870281   -0.68935579346469
O          -2.13961934612032    2.42985536204614   -1.05120710341150
H          -2.96687176494167    2.40594102751012   -0.57868294047530
H          -1.58212606201697   -0.93339166710330    0.67697986743130
O          -0.98173866377858   -1.30455764439709    1.35301050653340
H          -0.86641873420854   -0.59908447082907    1.99662820946009
O          -0.92182244529276   -1.88979475217735   -2.23979721328799
H          -1.38175042947551   -1.18066460271429   -1.74923452982537
H          -1.60143699885253   -2.35579644698530   -2.72762212284471
O           3.20627329170395   -0.19456031909685    0.62512504590534
H           3.61750291159903    0.48487171544199    0.08767572813141
H           2.57328779935687    0.27225648442127    1.20809350526540
O           1.23769097738539    1.14345641480074    1.93588386545635
H           1.40135845912025    1.89861663814050    2.50245143845533
H           0.35230277388625    1.29890837482282    1.53751081703465
N           0.95758451306150   -1.12237850080173   -0.48241419837660
H           0.33186552502608   -1.35647563131536    0.32964509700381
H           0.76506216498775   -1.77834768437981   -1.24311679823051
H           0.65039534716965   -0.16599241167125   -0.80909475219780
H           1.94940972612430   -1.05395022756764   -0.17436709433070
