    23
        -45.38013990  Gyration_radius:  2.28437779842 Dipole_moment: 4.864
 S          -1.64367244027036   -0.29922937079305   -0.85730311260370
O          -1.81167697420819   -1.40463886430197    0.06882501782413
O          -1.50281069320777    0.97588482403210   -0.16133544585310
O          -0.58772901293920   -0.54121687363518   -1.82052732469554
O          -2.98559504455876   -0.17604088132150   -1.68528228432708
H          -2.96595028414155   -0.96141429301322   -2.22227477789813
H           0.88582525609199   -1.10269185590978   -1.09018728672372
O           2.25748611541892    1.23252747692884    0.11291883657994
H           1.76548025613677    1.68205739491226   -0.61373107571408
O           1.65655509645896   -1.27702165397625   -0.51709098547187
H           1.30390752510373   -1.69656593158209    0.27746118458685
H           2.30049657043895    0.29011688242709   -0.17361877141011
O           0.45851935973202    1.97784314892803   -1.71706227365319
H          -0.33986754080927    1.91000692221009   -1.16782379596322
H           0.42694355270286    1.16875494395762   -2.24340986667003
O           0.06490033711562   -1.82379355512363    1.78632524642383
H          -0.68119324443802   -1.72197684379567    1.13492690230468
H          -0.16566946334583   -2.57145684291466    2.33957083979026
N           0.30900419804900    0.87827660207519    1.74682574226050
H           0.21780775520167    1.49220396928720    2.54813535027751
H           0.32726341566959   -0.11918073410122    2.02508572253400
H          -0.50056313184058    0.99095162576383    1.08092115752995
H           1.21053839193318    1.09660392001741    1.14865101091979
