    23
        -45.37155482  Gyration_radius:  2.42806857513 Dipole_moment: 4.197
 S           1.65318146116029   -1.76611984364346    0.07433509051589
O           1.24940650320174   -1.43453640915176   -1.28940608393370
O           2.09571651149712   -3.10877479856323    0.26754602087023
O           2.94561517920393   -0.83839176630103    0.36979752796115
O           0.64274940403755   -1.28850672657168    1.02010714899264
H           0.91500868725364    0.24207484236029    0.69723079151225
H           3.63485615038113   -1.49316281260328    0.33352449243664
O           1.06233191747032    1.20536451002137    0.51490776883520
H           2.01494370926573    1.28283183733042    0.43133737320449
O          -1.98887491994704   -0.85864733906725    0.81531451734692
H          -1.10850819954867   -1.20050007590629    1.06704653707055
H          -1.99666346819154    0.06163828867358    1.13694965202341
O          -1.43253883710099    1.75263499522740    1.55824507853457
H          -1.48472382172422    1.90501495527903    2.50274390466224
H          -0.48895314021007    1.64569042894191    1.34586653957111
O          -0.74988228340655    2.11035368353723   -1.30105884214714
H           0.05332187558537    1.90794271943012   -0.78176644688547
H          -1.39737272115877    2.39822048495426   -0.64942360281659
N          -1.14491186892181   -0.50944919569051   -1.65014447335089
H          -0.15610147304345   -0.91254835969744   -1.56090764699685
H          -1.63932341510897   -0.72863358363153   -0.73241527026391
H          -1.05788033143676    0.53475747953609   -1.71884136784139
H          -1.62139694926059   -0.90725332447183   -2.45098870926982
