    23
        -45.36097163  Gyration_radius:  2.30940805328 Dipole_moment: 4.091
 S           1.84757650598099    0.64693711450783   -0.06231721189416
O           0.81204989491700    0.50952989441079   -1.06535262285250
O           2.88457423218591   -0.34259201879292   -0.09669762663728
O           2.53008482385319    2.05536219304435   -0.37087302460639
O           1.24928994371591    0.78876728586687    1.27632002201970
H          -0.10836903015246    1.10224980270875    1.31648372701035
H           3.38548049319698    2.00661986234742    0.04609595066086
O          -1.72610340613649   -1.27374286244372    0.91244702259296
H          -2.06719567961855   -1.74049886442706    1.67683224360509
O          -1.70885562416734   -0.44247591960418   -1.81735942134230
H          -0.74568675727281   -0.35244924763704   -1.76434056129655
H          -1.97180955252349   -0.90350057177722   -1.01255572030704
O          -1.17225497461396    1.22322780269298    1.23984903777430
H          -1.31403653554303    1.68733979085830    0.29911257874468
H          -1.49847602352247    0.26745534867581    1.14039106450341
O          -1.29853688387751    2.10931461118056   -1.10463968400428
H          -0.36538251502112    1.86843876064981   -1.26882258817516
H          -1.78677425943535    1.38433000874124   -1.54885176367543
N           0.69447277666466   -2.16269126901007    0.43253669066878
H           0.72527004240061   -2.69209083828167   -0.43157819898827
H           1.31890944969394   -1.36741535783683    0.30612972432678
H          -0.78942224655867   -1.62817850366745    0.74284751861981
H           1.10519531582710   -2.74393701222656    1.15434282324451
