    23
        -45.36531880  Gyration_radius:  2.38858615296 Dipole_moment: 7.422
 S          -0.09015870033231   -1.64091628669009   -1.18019939981180
O           0.41015955463258   -0.37599209445184   -1.76852086451572
O           0.14799214039544   -2.78931229563627   -1.97716620036674
O           0.40027748308271   -1.72599712117090    0.20746245076153
O          -1.65416622459029   -1.43757372398399   -1.05309241316502
H          -1.79928641551466   -0.70151107031967   -0.43427582602444
H           1.39732931334791   -0.80014983038357    1.10693720795416
O           1.87310963769731   -0.09920725006650    1.62139311971476
H           2.80651775461136   -0.25644725022796    1.47437143559797
O          -2.11677569490551    0.49494759272752    0.85139709308590
H          -3.06773203438163    0.51184131750927    0.96808907211438
H          -1.76015401208919   -0.13770864154243    1.53606929165397
O           1.15884522432130    2.22739254825246   -2.47347029695756
H           1.40149073624267    2.48144071891784   -3.36450779760352
H           0.97099388654284    1.27673806548698   -2.50444767122275
O          -0.97582242273115   -1.27429227545072    2.38369568354779
H          -0.52098613649504   -1.65256804835175    1.59442338348658
H          -0.26742327246187   -0.96245876496270    2.95245892813445
N           0.33312054438320    1.41076372319163    0.03899829000815
H           0.35365947503807    0.62430531557623   -0.72931357852345
H           0.62129895215828    2.26837004340671   -0.43046659140871
H          -0.62341647266491    1.45765414944684    0.40486221430519
H           1.00112667369033    1.10068117864947    0.77530246926374
