    23
        -45.36225761  Gyration_radius:  2.34077726856 Dipole_moment: 9.637
 S          -0.08247061171947   -0.50537294429494   -2.26071711952546
O          -1.18223899042255    0.40902073053774   -1.87320520879529
O           0.29197060770312   -0.41001419753039   -3.62835722803906
O           1.14870700181502   -0.00406761924991   -1.34840307308974
O          -0.32804251150930   -1.85048451448642   -1.75680660439758
H          -0.55786593323004   -2.16770750204834   -0.29169012596910
H           1.07230067508268    0.97082214741902   -1.28688628370046
O          -0.75641536692416   -2.30888366077604    0.69320790350327
H          -1.07178018748164   -3.21077166177885    0.76037179486977
O           1.07824812436610    2.52426087103870   -0.54392189103991
H           0.83868496434980    2.26956412112234    0.36476032013744
H           1.97372545784089    2.86617648430237   -0.51575992520150
O           0.43487553036194    1.37056806032368    1.88896814005624
H           0.92382166900280    0.51530318142465    1.69009230732400
H           0.66965663165578    1.61657184147031    2.78428283322757
O           1.53285994832160   -0.87765186627409    1.20021801719017
H           0.83133242336805   -1.55003243149063    1.22433668931083
H           1.64722223452698   -0.68885069712597    0.25161597204480
N          -1.71226032609530    0.21366654643007    0.56437634148751
H          -1.49161843604656    0.33276553863141   -0.55313679028641
H          -1.05795814799105    0.80331142606062    1.09986853618476
H          -2.67422819313296    0.46672228513686    0.75695171889861
H          -1.52852656383795   -0.78491612884559    0.77983365580658
