    23
        -45.35553624  Gyration_radius:  2.55271845105 Dipole_moment: 4.330
 S          -0.74749688699709    0.79934680296696   -1.38394765944531
O           0.11254500649808    1.44810481714166   -0.44748291952754
O          -1.17007683923219    1.52589985335143   -2.53675895123015
O          -0.12571272196904   -0.52544070231550   -1.86430898682992
O          -2.00593541591891    0.31371348716736   -0.58291470382921
H          -2.61417851975665   -0.02941178802707   -1.27893834310794
H           0.31918994026364   -1.03456249071393   -1.07626829188748
O           0.84686942986184   -1.73344552744879    0.10919676260247
H           0.52075009603064   -2.63381473741654    0.15700045299001
O           2.60197627716886    0.55232330772115    0.38287733626642
H           1.81870155654231    1.03262096875661    0.07262727557250
H           2.41674244278565   -0.37637818773117    0.20828808198481
O           2.14236959433800    0.79860213767601    3.04508989222830
H           2.46154412112039    0.70765592804467    2.12143151319988
H           2.33243638197611    1.70268719296081    3.29873917592016
O          -2.98911743708977   -0.37156932176345   -2.90369512750961
H          -2.49103887962823    0.43379097353571   -3.13209192471408
H          -2.50913387651055   -1.10275268384940   -3.30051645605035
N          -0.24801452113209   -0.28186836430115    1.90533330698244
H          -0.51694420994281    0.50091811849165    1.31755143315933
H           0.48563414735053    0.04550293422904    2.53754513832667
H          -1.04882051666914   -0.57082720267416    2.45045387226363
H           0.40771081085973   -1.20109550585393    0.90078913257091
