    23
        -45.34481426  Gyration_radius:  2.59025077039 Dipole_moment: 3.972
 S          -1.49509946423066   -0.48198303457164   -1.68131006695285
O          -2.33312642354144   -0.83360509400802   -0.57863409823116
O          -0.57194516545574    0.59129924962430   -1.47348747138737
O          -0.78897532800826   -1.71410057032261   -2.24540951778305
O          -2.41348999140366   -0.08205790750621   -2.88975618955100
H          -3.14628957383701   -0.69433516801556   -2.89136610666771
H          -0.14278181512705   -2.13816393485394   -1.53715193658179
O           1.47019070448317   -0.21821676409273    0.14766647055105
H           0.85745754961792    0.21849434017260   -0.46597537811471
O           2.79906880816558    2.15703851391004    1.04218041298601
H           2.59087018833969    1.27940570727385    0.69055899216531
H           2.54290809177262    2.78522289421051    0.36507285977805
O          -1.84338485234564    1.42513001311296    0.90483348304438
H          -2.23183372557919    0.57741093060276    0.64884828517287
H          -1.32674463869229    1.69051083768544    0.13730491873824
O           0.82812817612445   -2.59001764289222   -0.56015191084242
H           1.15751332974761   -1.70593005310911   -0.18699756692996
H           1.57760745166178   -2.99576557729548   -1.00292874451459
N           0.45537676127442    0.54555641041459    2.43175881512342
H           1.06309794408870    1.31105776086102    2.69944795092539
H          -0.43869109904048    0.93721784496976    2.13377614552586
H           1.09267377773172   -0.02576057248078    1.07018784354333
H           0.29746931429464   -0.03840818363002    3.24153280995414
