    23
        -45.37364973  Gyration_radius:  2.34449648887 Dipole_moment: 3.605
 S           0.22367025713193   -1.38774585804727   -0.79342611803211
O           0.62916312306677   -1.51262507500384    0.59772632221264
O           1.28065761458666   -1.61091584011662   -1.74315164113583
O          -0.81756600879210   -2.59441465189400   -1.04264145122414
O          -0.55918949944667   -0.17905967070646   -1.01908223167129
H          -2.05245187040085   -0.62829638104529   -0.29008032274888
H          -0.27101028709521   -3.23890843312897   -1.48100374643112
O          -2.70198511587967   -0.99844938938308    0.34142985622694
H          -2.73214653210266   -1.93522220228330    0.13480755242286
O           1.88171418920203    0.95943239623060   -1.98478844060094
H           0.98772219759214    1.21590383590501   -2.22707690408621
H           1.85185912243640   -0.01613650702048   -1.94987640559073
O           2.22933932205300    2.08889754888662    0.41660351569445
H           2.22228679590452    1.61330204952625   -0.44554076837376
H           2.77189917392170    2.86784970332198    0.28417204996912
O          -0.43217480634131    2.03264618566908    0.60169149808440
H          -0.56927214470902    1.43117219129370   -0.15092337204909
H           0.54045853103015    2.17401525726968    0.63182647362637
N          -0.90458731340017   -0.05339790849755    2.07389729788849
H          -0.73976547090322    0.92179619794110    1.65463328584663
H          -0.84479946215210   -0.07501523271945    3.08496474839159
H          -1.81592419561447   -0.39727239393005    1.70560134424473
H          -0.17789761007990   -0.67755583227919    1.60023746733030
