    23
        -45.37695751  Gyration_radius:  2.29636600915 Dipole_moment: 3.465
 S           1.53502942662088   -0.99337963082531   -0.51600314953582
O           2.08009930067488   -0.59246084596274   -1.78349282826180
O           1.82702102725426   -0.02700360663343    0.54990696801715
O           0.11209175735806   -1.30160274089702   -0.55486071675948
O           2.25225412309308   -2.34409103082834   -0.09086008430064
H           3.13367938093543   -2.25720903274466   -0.44152340939629
H          -0.27101213664083   -0.14079182827714   -1.75267039846808
O          -0.31251146550467    0.69618288870867   -2.25762242906367
H           0.50284001028078    0.67796448421930   -2.76981556825675
O          -1.71271742974906    1.05129678264091    1.67729100227711
H          -2.24312940674041    0.50607582315684    1.05937563414874
H          -1.15499104294108    0.39351413130903    2.15114142685662
O           0.01192169466026   -0.90103688516319    2.32008201371195
H          -0.32369464419453   -1.67132465867345    1.85481390111969
H           0.77700752885727   -0.60151173191422    1.79465823776578
O          -2.51587589502667   -0.62505576424004   -0.26284925457171
H          -2.69712925362264   -0.28718177369494   -1.14231178637682
H          -1.63609649474320   -1.03512920149629   -0.31269228048673
N           0.13136066062773    1.92716088188412    0.08927668411571
H           0.41078957549934    2.89809105361114    0.17358939896543
H          -0.14183482610377    1.67880734750756   -0.89073546139080
H           0.92141190654399    1.27316657118226    0.33594135322145
H          -0.68651380701611    1.67551877715328    0.76936073660573
