    23
        -45.37824964  Gyration_radius:  2.35338981239 Dipole_moment: 2.051
 S           0.50212805581774    0.95269515061317   -1.31948451300055
O           1.47052638757134    0.09484190544914   -0.63429571276565
O           0.78088456326394    2.35637653342191   -1.21749783865389
O           0.65918071720948    0.58993162662146   -2.87433933344565
O          -0.85665483741567    0.57591898506539   -0.95444216848414
H          -1.48289109837376   -1.00046364384104   -0.48088686541414
H           0.78768954266404    1.44563083760334   -3.27154121145484
O          -1.39034269536282   -1.92156442204749   -0.16581700569591
H          -0.79753737021850   -2.32038426288269   -0.83283542936557
O           0.65738235928277   -2.12228611209172   -1.91446714135667
H           0.47132248707036   -1.83770546324546   -2.81145888691802
H           1.08358164114614   -1.35425830716589   -1.49126877261893
O          -0.39657303820561    0.83237027456260    3.05566151265174
H          -1.24733740317209    0.78037123000285    3.49466651019105
H          -0.50395830424997    1.51673734160498    2.34672609377794
O          -0.83614481301076    2.39492731922964    0.97986029313125
H          -1.12398696810435    1.73998744045892    0.31875447683519
H          -0.12674414366138    2.85968847945688    0.51809684771350
N           0.47965599860378   -1.13256331465702    1.47881127022868
H          -0.34940980699783   -1.57769920789249    0.96273905603798
H           0.99808824138627   -0.61330471383075    0.72106966250159
H           0.14222831000533   -0.42885208218723    2.18604284901294
H           1.07891217476097   -1.83039560399466    1.90590631705841
