    23
        -45.35387390  Gyration_radius:  2.34544400073 Dipole_moment: 5.332
 S          -1.12880302155103    1.34678487635567    1.14081759811491
O           0.24990736625993    1.45252468537548    1.54301912721404
O          -1.54711524083209    2.04186892463387   -0.01885317519070
O          -1.50361840564302   -0.13455676160220    1.03978184021150
O          -1.98781725387585    1.85755281897847    2.36079378921309
H          -1.43922044379403    1.80159658398724    3.14004196737712
H          -0.72102471944234   -0.67967123447429    1.47071569948612
O           1.53167541553817   -1.76891878820383   -0.34055438300012
H           1.98159798298668   -2.55748421819052   -0.64513676064669
O           0.54063316474550   -1.18178988888164    2.00822732745564
H           0.97929850509467   -1.53674179507036    1.19033056811299
H           0.94175384092443   -0.31314365096434    2.15251484774490
O           1.94152735132544    1.01964419864079   -0.63992933822376
H           1.47286856081491    1.32452105442648    0.14831572071833
H           1.99125517182347    0.05475302026194   -0.57305089772665
O          -0.19062306511338    1.24873987620107   -2.35403518469322
H           0.69184398375082    1.29849535703007   -1.94162110282950
H          -0.78089306786850    1.70665497589049   -1.74232686789058
N          -0.69430184624349   -1.42549534546187   -1.64377787917063
H          -0.55110144433478   -0.49801332375070   -2.06554721476758
H          -1.01160558376017   -2.05114176029931   -2.37320783287334
H           0.67501045493069   -1.68300063789816   -0.88990461143050
H          -1.44124770573506   -1.32317898700222   -0.96661323722303
