    23
        -45.36794030  Gyration_radius:  2.55992494634 Dipole_moment: 2.950
 S           2.21788859084898    0.38345621456289    0.94271887841330
O           2.07447777159997    1.76589532659863    0.53769281313470
O           1.75494342914314    0.11352817661057    2.28213896218162
O           1.60923555405544   -0.53417428648604   -0.03510011602288
O           3.77357700425345    0.03471138942267    0.90094532053860
H           4.12073931405765    0.44139566557996    1.68996987713467
H           0.81935220019178    0.18003481575405   -1.26932276693390
O           0.24621572107777    0.63023090512162   -1.94000337290161
H           0.84439984584133    0.95118842664100   -2.61613970400392
O          -0.54881173047071    1.97740761994821    0.35431485101336
H           0.40709310200932    2.09921198949088    0.55192804795522
H          -0.55208810347954    1.77835327866724   -0.59435080785112
O          -2.61975733781045   -1.94271492015964    0.17767317734811
H          -2.49414757730966   -2.88459696992558    0.05268564912691
H          -2.50078038693811   -1.53233638250845   -0.71020712627373
O          -2.08074465823800   -0.75340369747528   -2.15441666510175
H          -2.69619336589337   -0.06839431295164   -2.42086449447011
H          -1.19950494274898   -0.33042679090960   -2.12128971235208
N          -0.66540165574918   -0.48363153054476    1.29181834951650
H           0.20023077674620   -0.75096487561598    0.75879770452450
H          -0.41629367730506   -0.53051825163106    2.27830090179235
H          -0.81220885239817    0.53703594030414    1.02201325858627
H          -1.48222102151915   -1.08128772052980    1.02069697466520
