    23
        -45.36691195  Gyration_radius:  2.47658444873 Dipole_moment: 2.995
 S           0.50443326066668   -1.05648389840632   -1.46107013926173
O           0.66324096769318   -0.50863404449190   -2.78495716227046
O           0.75561424378551   -2.47082935206234   -1.33949595083569
O           1.67091135693092   -0.34488989086964   -0.56950943285560
O          -0.71458416554152   -0.62433307271140   -0.79637439520624
H           0.33059208666898    1.06143307019196   -2.36888091231929
H           2.47638284094701   -0.62479327997388   -0.99458106039950
O           0.20092226130171    2.01811949043544   -2.18543084647171
H           0.19936785120385    2.44467068266257   -3.04434631647702
O          -0.97196273568004   -1.00361648750821    2.87563729330922
H          -0.42047020395010   -1.63856301924899    2.36945108050348
H          -1.87964633641472   -1.23878176294709    2.67406514604786
O           0.42997354906051   -2.66108724809970    1.27074801920566
H           0.51419891851708   -3.60319607521805    1.42942661758088
H           0.50328121677000   -2.55192328039988    0.29687302339271
O          -1.12706332512367    2.99627787740211   -0.04814294417817
H          -0.60520485789405    2.72409287614728   -0.83371250912076
H          -2.04392828230145    2.84947403873092   -0.28816896783013
N          -0.09195909887712    0.87402208485005    1.19630439603719
H          -0.50865969529851    1.80919358342264    0.99179058880205
H          -0.45236105572510    0.37850128290243    2.04175882101357
H          -0.35605827029181    0.25015657181118    0.36270197613920
H           0.92297947357417    0.92118985341397    1.20591369521069
