    23
        -45.34820543  Gyration_radius:  2.49427604247 Dipole_moment: 7.603
 S          -1.34676628150697    1.51022201467009   -0.89260092038983
O          -2.06476887345531    0.35258217968278   -1.34258139462190
O          -1.94033935204841    2.78604200109855   -1.04176232102265
O          -0.93842392410948    1.25527016401590    0.60177665742107
O           0.05559711526380    1.53344999104281   -1.56930757377657
H           0.38509500372166    0.60009126106255   -1.66094751145840
H          -1.74737582299598    0.73271679593767    0.97782096788082
O           1.27567071285180   -0.77425993712429   -1.72152802854311
H           1.47092060308900   -1.01018975019400   -2.62992872032717
O          -1.38321276863033   -2.27270413054041    1.97163633902908
H          -1.32084793581501   -2.39032758737988    2.92062402907240
H          -0.53064522369455   -1.88125976901290    1.68095460837171
O          -2.88463195165635   -0.21544847485629    1.16336672000463
H          -3.02710275109902   -0.31633920444160    0.20964963830510
H          -2.46430988049070   -1.05464800302315    1.47170944347269
O           0.74695207646054   -0.89701772397546    1.04264785430696
H           0.84751316531862   -1.19485800136833    0.12988594021644
H           0.28575749165890   -0.04409064057641    0.98753363527572
N           3.03445032514827    0.71867061736408   -0.41895491690555
H           4.03018466473390    0.85511244064425   -0.53702447676311
H           2.57318916060753    1.61436335461007   -0.53209442169900
H           2.07657680355640   -0.31182727535369   -1.34145592048932
H           2.86651765308088    0.40444967771651    0.53058037267360
