    23
        -45.37301667  Gyration_radius:  2.34775598636 Dipole_moment: 4.917
 S          -1.76505042763082    0.43862945028178    0.57549673140525
O          -0.92411490939072    1.54701042187449    0.16482538646946
O          -2.24107983144903   -0.32406840400031   -0.57599391091328
O          -1.15164823348244   -0.39072543650204    1.59224017257382
O          -3.05758479719387    1.07017954935737    1.24244204229130
H          -3.46443749362854    1.51690353756301    0.50705457536856
H           0.17032656194590   -1.49634532300233    1.18315453183727
O           0.93960697421655   -1.75633108291496    0.63995556101217
H           1.43634738274152   -0.91621709369121    0.54373668380841
O           1.59755212634916    0.82623963811763    0.17526903286463
H           1.79419319879075    1.07559799588243    1.09344430176320
H           0.66840559960460    1.14419392766814    0.07505225814040
O           1.73980373012144    0.18320569413738   -2.46942676838056
H           2.62886008184336   -0.10844048156447   -2.67827094993081
H           1.78862823908003    0.59559586505175   -1.58799120964208
O           0.67587592645032    1.30349011132753    2.69095009837706
H           0.24338012097579    2.15359373993190    2.58984808336753
H           0.00333807063089    0.64294719796775    2.44298407379633
N          -0.21982832710511   -1.51724932225787   -1.67387356877251
H          -1.09606014335653   -1.00789739508359   -1.33537338910281
H          -0.46717881271764   -2.31196799254718   -2.25288767887890
H           0.41619952261175   -0.86079526766711   -2.17378765961314
H           0.28446545060661   -1.80754931995059   -0.76884835784491
