    23
        -45.37112403  Gyration_radius:  2.4034659825 Dipole_moment: 5.327
 S          -1.62471954578676    1.41663921923169   -0.38277662501287
O          -0.61194902802291    1.69238924157855   -1.40696343531520
O          -1.90741072361941    0.01027008782122   -0.26149559940792
O          -1.28807145273846    2.06241182192773    0.87715641891340
O          -2.95441819049602    2.12152235901168   -0.89242535828332
H          -2.71833378733107    3.04271873302698   -0.84793444616199
H          -0.38831404755722    1.01254815302154    1.59810646185991
O           0.23618493411223    0.39364806907274    2.07295780720161
H           0.14426933247045    0.60152365729393    3.00477425649830
O          -0.72423139594628   -2.25956975429485   -0.97722295024355
H          -0.34888889606981   -2.51087792146776   -0.10908265388878
H          -1.39811821948271   -1.58557610524134   -0.75985148243196
O           2.40576732643753    0.23593952312164    0.50404399214558
H           1.65339413349490    0.29862281193327    1.13295508661283
H           2.75483807890868    1.12563509701109    0.42824076767646
O           0.56239168580563   -2.26624987861488    1.40062176090804
H           1.51389693883114   -2.17735024179903    1.31263518288206
H           0.23887884632597   -1.39346462281354    1.68307039325715
N           0.91522787463636   -0.37327564438522   -1.69642981891764
H           0.27254916775122    0.48394539979025   -1.66166300102405
H           1.36584966400934   -0.45072926347356   -2.60104630046201
H           1.61063375522155   -0.25022055156622   -0.93182189699001
H           0.29057356904390   -1.23050021018533   -1.48584856981262
