    23
        -45.36925737  Gyration_radius:  2.30535678195 Dipole_moment: 8.239
 S           0.66076279042313    0.55775509465542   -0.67263407269665
O           0.88532945520833   -0.68002978273926    0.09761966671092
O           1.42285625618740    1.66785483057261   -0.18263448124140
O           1.08013333785881    0.25749662827696   -2.14757534223953
O          -0.78097771732919    0.84503910659946   -0.68855263884274
H          -1.88842896873149   -0.25519591421381   -0.30803244202928
H           0.57131360790314   -0.54181343328949   -2.38721180422667
O          -2.50225630168444   -0.93242558234318    0.08028079892857
H          -3.38754933238977   -0.58695500834574   -0.04630353252716
O          -0.36675683316925   -1.97554641901548   -1.86577568076205
H           0.16270956190762   -1.85926007570794   -1.05919303170927
H          -1.28516097260043   -1.91743078190858   -1.58336273034248
O           3.79899069352441    0.48845054181798   -0.96896354026998
H           3.49160797015131    0.26425084981213   -1.84950750325967
H           3.08470752404054    1.00571115806940   -0.57412948094101
O          -0.65686986664353    2.06120900209319    1.67218712798610
H          -0.88464867453540    1.85082297941936    0.74458372211320
H           0.24525682458900    2.39391256819206    1.60471016532461
N          -0.74066914038520   -0.54743936523837    2.07437762560571
H          -0.75942265307618    0.50540699671691    2.17986139422496
H           0.04710156359116   -0.71427275540307    1.35669890732900
H          -0.59236951720371   -1.04120779702151    2.94755858156226
H          -1.60565959765437   -0.84633284104053    1.57599830121860
