    23
        -45.35950915  Gyration_radius:  2.50531453711 Dipole_moment: 3.880
 S          -0.45702128909314    0.46938444071960    0.79976344814857
O          -0.74186313115961    0.04263001062251   -0.54653718225834
O           0.20072385115770    1.74443823772883    0.89678491932660
O          -1.77967198772461    0.50230045127229    1.59768896337059
O           0.38313720650264   -0.55737828365642    1.54421647555699
H           0.30378754581915   -1.52750902300038    1.17129846683389
H          -2.49308012836502    0.81588059027573    0.94398061655527
O           0.41569754868441   -2.90532260426312    0.67540899302941
H           0.80048425775281   -3.42531818332768    1.38505245197696
O          -1.56327535570093    3.48931403471842   -0.12761442512281
H          -1.70677563397859    4.17628373717118    0.52637196787771
H          -0.81532599696469    2.95285733456557    0.19951799814717
O           1.89429526667038    0.43136719243872   -1.02830249941163
H           1.93677348904758    1.11468066650243   -0.35361381953566
H           0.94672551260610    0.28037254041612   -1.16243141321618
O          -3.17257808172673    1.35995340109744   -0.34555508216864
H          -2.65745535305022    0.81625097159457   -0.95515946542051
H          -2.76624469746610    2.25367883684987   -0.38570180383106
N           2.35146011235667   -2.42136484983386   -1.02314756909907
H           3.29402190271415   -2.71942458401940   -0.80404855538096
H           2.14480562394534   -2.71441252763419   -1.96993255160347
H           1.14434869886297   -2.77918413810422   -0.02335756926634
H           2.33703064910866   -1.39947825215052   -1.01468236451217
