    23
        -45.37169619  Gyration_radius:  2.44998398954 Dipole_moment: 3.815
 S           1.64642502496411    0.40171758438069   -1.30850293963841
O           2.22210542628175    0.43362207768991    0.03266201288619
O           1.52219662488180   -0.91796348052577   -1.86762249840109
O           0.37457585938703    1.12980725510048   -1.33952659275711
O           2.65703947807127    1.21759532342464   -2.21733044302110
H           2.99664825147058    1.86313759369143   -1.60543093686396
H          -0.87184383408647    0.06204264779138   -1.72675351342448
O          -1.64557598549385   -0.54132527858615   -1.79146981082403
H          -1.72296331726711   -0.75962976453981   -2.72130478839301
O          -0.17772699704090   -2.46314095162754   -0.52472342107989
H           0.57569457588923   -2.14782577418823   -1.06484587500607
H          -0.94108419293599   -2.01656176253741   -0.93607040489630
O          -0.99766258137706    0.84838632025162    3.36256017302934
H          -1.19929104884607    1.45111629412715    4.07901584730549
H          -1.31985991261801    1.26445463133093    2.55250357893599
O          -1.48688002053803    1.25645129986822    0.54952740991994
H          -0.78852465254063    1.45803968849409   -0.10977480364756
H          -2.17617866423376    0.82047006173393    0.03756828959011
N           0.26930149662080   -0.68882794815197    1.34728111554209
H          -0.49532437549380    0.00060617859256    1.18160711814009
H           1.15420972599127   -0.24973178663978    0.96448656796882
H           0.33012829733494   -0.86622554507571    2.34649414776817
H           0.07459081154693   -1.55621464460342    0.75964976686688
