    23
        -45.34994771  Gyration_radius:  2.51274767881 Dipole_moment: 2.873
 S          -0.95182572770702   -0.01596344053582   -1.86537298506606
O           0.34475436237468   -0.59418473282950   -1.60926541870186
O          -2.02106007895839   -0.49484516485179   -1.05942680837155
O          -0.85482075584435    1.50067259161471   -1.86709012448215
O          -1.29970677528166   -0.30773596637491   -3.36992016374487
H          -0.53670773349943   -0.05184829737023   -3.88392320051440
H          -0.76597323184512    1.88931718094518   -0.86921672515884
O           0.99568705433568    0.19904848529340    0.91282522945340
H           0.93023008541894   -0.16128188693972    0.01317942142218
O          -0.51494295298619    2.27715658005378    0.45535056372226
H          -0.07000200984886    1.45397150541530    0.80149604529603
H           0.21466271489167    2.91722430226154    0.41500499717915
O          -0.78394006173184   -2.81734019765905   -0.32426031800630
H          -0.05032582541435   -2.43262561039755   -0.81617093878564
H          -1.51419770715980   -2.20047140387461   -0.47522825822108
O           2.18709086009506    2.72854775327979    0.63647142076353
H           2.05350775279808    1.77520563291577    0.75561658937284
H           2.90496418877684    2.98012234044420    1.21847985936967
N          -0.08661762484532   -1.80677288749504    2.28505543898095
H          -0.92916856106480   -1.55998213323771    2.78848286191539
H           0.46978361609153   -2.40535657245861    2.88183197341960
H          -0.36672694624968   -2.35179260197912    1.46607508196260
H           0.64533537786856   -0.52106547617792    1.51000543819579
