    23
        -45.37436802  Gyration_radius:  2.4160141549 Dipole_moment: 3.690
 S           1.49602585092075   -1.30834773848912   -0.60345956347408
O           1.99813030972650    0.06128266634085   -0.61997620794529
O           1.36011044733111   -1.84633333912511    0.73157517802941
O           0.27640954390263   -1.42980343874897   -1.39586939981219
O           2.59266298735355   -2.19852881393376   -1.32657601441602
H           2.67923027993329   -1.81126505538622   -2.19250598152845
H          -0.25340717446298    0.11323592008151   -1.64940384606956
O          -0.33346791423849    1.08855592286383   -1.51664063635821
H           0.58960734571450    1.35194027140075   -1.40460059113844
O           1.53199047049442    0.61825440131926    1.91760973461262
H           1.85843200944582    0.57060470548553    0.99226401065394
H           1.64791055858969   -0.28559904980416    2.23222956241310
O          -2.56296864438290    2.50549120637065   -0.35891777880683
H          -3.19319640228629    3.06866772605237   -0.80935050560026
H          -1.94154613280987    2.19383952471819   -1.03024869274437
O          -1.25981617168360   -1.93510692309673    0.85110004685844
H          -1.38003573279996   -2.05804555490994   -0.09745486294915
H          -0.29441176554105   -2.07677801625361    0.96877697193442
N          -0.98067088422985    0.68767039468014    1.08783717743484
H          -0.80046152716614    0.93153950799838    0.08268860295094
H          -1.26639113517360   -0.33191258706257    1.10843073202165
H          -0.05746466156431    0.78216669419462    1.59575161643020
H          -1.70667162705602    1.30847158525471    1.43674043749500
