    23
        -45.37169637  Gyration_radius:  2.44995931108 Dipole_moment: 3.819
 S          -0.37390566634259    1.90851986818763   -0.89537564500219
O           0.64343380252233    1.29251170747609   -1.74197757610072
O          -1.72037856736628    1.50215512279871   -1.19760804339562
O          -0.04976871092549    1.71481983812170    0.52097238727303
O          -0.26552856936410    3.46480654090346   -1.17562910623169
H           0.66370724772318    3.56990483678343   -1.35417543687351
H          -1.25428545226074    0.78558439846520    1.24891432587451
O          -1.83948438333608    0.12207647693401    1.67799997431943
H          -2.64075757306446    0.59604705897513    1.90504630394976
O           1.06969457502599   -0.40220199586982    1.66703622525899
H           0.31175156856219   -0.62852940841272    2.21623276057716
H           0.86198492078600    0.49526710499919    1.32859433842524
O          -2.15222242205782   -1.08525461661723   -0.75046747920799
H          -2.18859468673301   -0.17937006487263   -1.12040989660462
H          -2.21795789431572   -0.92977965268915    0.21016952460079
O           2.76323315965889   -2.30077728416886    0.30852346210247
H           3.65626724358515   -2.55342083298685    0.54460980430535
H           2.46527119514768   -1.67662959772469    0.98288657872634
N           0.46047651764897   -1.16578726810142   -0.89201915085358
H          -0.59030159444419   -1.33786776739421   -0.93244622280532
H           0.73702663138266   -1.04459073198877    0.10613614006796
H           1.02195564267986   -1.91296546533861   -1.29200696287553
H           0.63838302552864   -0.23451826746866   -1.36500633552820
