    23
        -45.34616803  Gyration_radius:  2.50953538626 Dipole_moment: 2.274
 S          -1.03103530154725    0.94270920939396   -2.07543036027452
O          -2.09084562042476    1.66321057812902   -1.43837082566124
O           0.11089199383425    1.66175487051179   -2.51895130561150
O          -0.58280247678451   -0.22528533180586   -1.17042317987708
O          -1.65558324306862    0.16323682841079   -3.29278928875243
H          -2.55865666216583   -0.04339913730585   -3.05839103507797
H           0.16908165419516    0.21567811181392   -0.59364619309396
O           1.23050677684719    1.04013146754745   -0.01972616585576
H           1.59206440777570    1.44913568633780   -0.81223685745708
O          -1.24819585903646    1.71624744079420    1.18600834265863
H          -1.70188119312299    1.79311545728437    0.33228927857062
H          -0.30726871565895    1.81667613022479    1.00068581287577
O           0.23044642360250   -2.35230181753726    0.59792661657290
H          -0.26620106278819   -1.89969078710052    1.30533035090534
H          -0.12594433405507   -1.98666175132069   -0.21684509226979
O          -1.24267047222093   -0.76888961466317    2.27365392986592
H          -1.24862701106882    0.14574105615506    1.92008774559635
H          -2.12090271123287   -0.92582992479400    2.62173331692194
N           2.66390079021334   -0.93898110695111    0.81568082510276
H           3.42741145919098   -1.30118830512216    0.25955266070324
H           1.88748579387010    0.32068202217472    0.32076832537381
H           1.89291652572829   -1.61829513354039    0.78772551064181
H           2.97590882793650   -0.86779595865414    1.77536757820231
