    23
        -45.35387434  Gyration_radius:  2.34543825876 Dipole_moment: 5.326
 S           0.05527625584118    1.28674443732423    1.65279840614903
O           0.42112590204430    2.03546712116816    0.47821364992795
O          -1.31943219223468    1.07627913893064    1.91570978291176
O           0.80756052774401   -0.04689219333245    1.64524350830705
O           0.68288089196726    2.05252723831206    2.88033871588401
H           1.38254216903257    2.60771571884178    2.54315183111028
H           1.53225428537807    0.01321793161001    0.89250997076284
O           0.86845354460087   -1.05946709515181   -1.92787959535717
H           1.11569500216237   -1.68975841445374   -2.60508757979213
O          -2.64594462751318   -0.33822513888092   -0.12435156215989
H          -2.46142401014265    0.15042104365748    0.68771312458029
H          -2.27575763536717    0.20963837528506   -0.84130286609375
O           2.35331747446534    0.32143190508093   -0.27512718652045
H           1.93071738574850   -0.24620602831631   -0.97275913804850
H           1.99351039359591    1.20793899080199   -0.41975667023694
O          -0.96732045986998    1.09373948106489   -1.75804675107663
H          -0.54149178965982    1.59661051338346   -1.05112330265654
H          -0.34751461900204    0.39236338542287   -2.00676420435533
N          -0.55175759664687   -2.21475647656314   -0.07882805928073
H          -1.42264877640923   -1.66770495048905   -0.10861622916942
H          -0.11846574481551   -2.02041024483515    0.81638183832326
H          -0.80132979880989   -3.19517025994912   -0.10372639117855
H           0.30975341788619   -1.56550446891216   -1.23869129202238
