    23
        -45.37436792  Gyration_radius:  2.4160315612 Dipole_moment: 3.689
 S           1.56509024121447    0.99194636469789   -0.93813406941074
O           0.60142488239331    1.95915941607763   -0.42418605385873
O           2.37305191034493    0.39085068701811    0.09922026497571
O           0.91429749958011    0.00854650853548   -1.79804499966800
O           2.56835904583104    1.80343837154183   -1.86162826438636
H           2.01070505340099    2.21103515256671   -2.51748139975918
H          -0.70439977602149    0.15666020406439   -1.50913597092895
O          -1.53157426223560    0.41897660815958   -1.03770010435243
H          -1.33448017572909    1.32868243978078   -0.77790254020337
O           1.38180247792213   -2.03707558509144    0.00749146228851
H           1.94544935586455   -1.24120177116705    0.12889186537892
H           1.14825519504663   -1.99315790990102   -0.92676862424009
O           0.69964526042900    1.21539270638568    2.10636238510117
H           0.59679926385995    1.68592071249343    1.25010441544502
H           1.61641123182524    0.91840873840327    2.07830911343575
O          -3.33085995506600   -1.30936211996384    0.40965597585584
H          -4.21317523358729   -1.57899631522400    0.15257639369464
H          -3.00662961676260   -0.72419250573311   -0.28773727709441
N          -0.67031702537680   -0.85841680352023    1.19611316075494
H          -0.20772006911825   -0.09404926814626    1.76269635740491
H          -1.10807735007243   -0.39518839164725    0.36185351832393
H           0.08680449790055   -1.50050144293591    0.82727043169293
H          -1.40086248164486   -1.35687577639271    1.69817396955090
