    23
        -45.36800556  Gyration_radius:  2.37082976615 Dipole_moment: 2.319
 S          -1.08378791028997   -0.60108911776469   -0.92849789205343
O           0.09182147754537   -1.42489328186692   -0.72586820975502
O          -2.13662946025321   -0.95301258062394    0.00849209166845
O          -0.74975581611132    0.82862502524020   -0.85752679771043
O          -1.62343091425639   -0.86039408432830   -2.38330815359147
H          -0.90484724115819   -0.56330701839860   -2.96353211697391
H           0.38461285897192    0.96802121845825    0.36280381485273
O           1.07049439504813    0.76368466168578    1.03659645791368
H           1.83113485343388    0.47749730171146    0.48778973733676
O           2.47640229665911   -0.27096641049827   -1.00759774737599
H           1.70602683796246   -0.87175070829947   -0.95921929307679
H           2.37000537563118    0.18201076421763   -1.84923906493917
O           0.52364876153051    0.70567993666553   -3.13436631052262
H           0.14101603661492    0.92489024926393   -2.25690715493600
H           0.34033858144329    1.45476795514931   -3.70509548639599
O          -0.65800849934607    1.29135652778802    3.23959984289146
H          -1.34083030317695    1.87684498314550    2.90632951380490
H           0.11348355674880    1.42359609772113    2.66905045090879
N          -0.51415280502122   -1.10429575611617    2.03861599355589
H          -1.26839800734983   -1.15595136862101    1.28163194198681
H           0.29388758487988   -0.57996347026717    1.58288982062503
H          -0.82083034524829   -0.48074695732600    2.80714738250829
H          -0.24220132422876   -2.03060394689867    2.35021121929213
