    23
        -45.38068507  Gyration_radius:  2.28342989984 Dipole_moment: 4.457
 S          -0.96063841314537    0.32073827360277   -1.52400768300500
O          -1.18679167084807    1.31568047757701   -0.47587768917816
O           0.30979911013809    0.45088565562603   -2.18212568327371
O          -1.21120444287855   -1.02246302583212   -1.00522899636782
O          -2.07271859872097    0.58140190546024   -2.61930770970884
H          -2.88881039589809    0.42314961988721   -2.15532865197002
H          -1.38023327278230   -1.86769651971837    0.48301518979478
O          -1.20143809804560   -2.15582750141511    1.40148206694729
H          -0.43499898966074   -2.73189137490456    1.33809672115477
O           1.36909502635454   -1.60302044517657   -0.57541754999652
H           0.42458527513123   -1.45746751227032   -0.77529671395892
H           1.82257844770429   -1.32118016124794   -1.37400581456247
O           2.05232250798612    0.28436289106688    1.23648994571855
H           2.07491685386440    1.05339656505195    0.62239264311573
H           1.98539490878670   -0.49892452747194    0.65036706884179
O           1.53659542983442    2.17534136424599   -0.57977612336688
H           0.75412407890247    2.67097437030953   -0.32540072958786
H           1.22082051366139    1.58099915588647   -1.28961120589481
N          -0.45699695438229    0.37049523501623    1.86171774709944
H           0.62178034577686    0.36082872894152    1.75008226395594
H          -0.75430126267166    0.88585972595574    2.68223234451247
H          -0.83100474054336    0.80857969781317    0.97382347861091
H          -0.79287565850918   -0.62422262842241    1.88168510114738
