    23
        -45.37695762  Gyration_radius:  2.29636314391 Dipole_moment: 3.464
 S          -0.94370723733947   -0.38936109962581   -1.60192253167201
O          -1.73261384834273   -0.69372224008796   -0.40186064592844
O          -0.47906092877883   -1.57500895884623   -2.26721839258072
O          -1.92814357687046    0.36268477936235   -2.59419393163665
O           0.10962496893468    0.56860672469256   -1.29561136457341
H           1.32278551923509   -0.60761438388449   -1.02299268279869
H          -2.35065557764734   -0.34060730528450   -3.07821755769785
O           1.78848797399492   -1.40774172981453   -0.70658880624189
H           1.50693216898616   -2.08168677791343   -1.33424531464830
O           0.33126457256672    1.00724721543845    2.39348619072062
H          -0.47838428998599    1.39215525566277    1.98779022728078
H           1.06057948181936    1.36852941782261    1.84770694039374
O           1.97807691482163    1.65474485279495    0.37129780977200
H           2.72826281289287    1.09314332319010    0.16560507715328
H           1.29791982948860    1.44092220490987   -0.28922117976207
O          -1.62829603188889    1.74224253621872    0.71469691598829
H          -1.82411237180595    0.87015285673859    0.32445290893443
H          -1.17235879971783    2.22812087407474    0.02289161334343
N           0.08803151761953   -1.35713008112260    1.37345111325764
H          -0.74809871864296   -1.20962423885597    0.74751515925183
H           0.89732097877279   -1.51465367802634    0.72770266594013
H           0.22894493782516   -0.41483961877481    1.90908691969740
H          -0.05280029593387   -2.13655993885056    2.00638886560144
