    23
        -45.36480818  Gyration_radius:  2.34767769587 Dipole_moment: 4.205
 S           2.11473332843451    0.55766149087460    0.63147081752688
O           1.33963462379057    1.20043369699785   -0.45768348688831
O           3.05135237596519   -0.40397911227877    0.12208323891263
O           2.96601972213886    1.73675112806518    1.27857944411246
O           1.22761153267252    0.08169253075327    1.66581421995378
H          -0.35524234376619    0.42593579064735    2.02285137624357
H           3.75905696771405    1.75302688335067    0.75067535256966
O          -1.10738311427961    1.72787366716355   -0.27104017989915
H          -0.08529979023297    1.64415635349636   -0.35380584916913
O           0.74655444297451   -1.28795338653998   -1.08471074605194
H           1.57831292272660   -1.73121346193084   -0.88746370462300
H           0.97406778583593   -0.34506886979695   -0.95435385452148
O          -1.27507198523629   -1.90305762406669    0.62990086069592
H          -0.52449475666339   -1.71286700644655    0.02590330624664
H          -0.92226120531532   -2.48754623926787    1.30305814443352
O          -1.32956608398456    0.48767256573376    1.87411548636884
H          -1.29871134582552    1.30791091170618    0.69007181201383
H          -1.54979161387246   -0.40136212980705    1.52205808554769
N          -1.91001896157388   -0.18034874896154   -1.76755357820201
H          -2.46344670652963   -0.01397470133116   -2.59759752032658
H          -2.40766287070485   -0.82259197354993   -1.16072000357219
H          -1.04127081656494   -0.63453741447478   -2.03370464094797
H          -1.48712211767602    1.00138565957462   -0.94794861032189
