    23
        -45.37671628  Gyration_radius:  2.31736854002 Dipole_moment: 7.011
 S          -0.88437503369530    0.17094063126154   -1.26850727245821
O          -0.28920938557504   -1.15042325853943   -1.08780359196037
O          -1.56717554010062    0.35853336713219   -2.51628268760752
O          -1.94749365097611    0.27566796319221   -0.08635547022709
O           0.09991260567073    1.21989987508056   -0.98059733271637
H           2.03363518775537    0.45788996837140   -1.12715461258296
H          -2.39726612907460    1.11453181220544   -0.31103411113044
O           2.24899574849453   -0.47153374155526   -0.97125875439778
H           1.39704158094864   -0.91460652548280   -1.17899939968723
O           0.13109507243566    1.22148275320909    1.61220844865518
H          -0.75933688683079    0.89335917979621    1.77300933900641
H           0.16729144493087    1.34350237264542    0.62738065773572
O          -0.18030782410240   -2.52024740396450    1.13137919270066
H          -0.18966107785998   -3.43990801060103    0.86125116098313
H          -0.37468459390599   -2.00232241558953    0.31159295771158
O          -2.43201189475098    2.54750867068322   -1.33457492004443
H          -2.28649947219385    1.90546367613312   -2.05590818742488
H          -1.58423763353811    2.98666578035279   -1.22050732982366
N           1.79411830381494   -0.80972974835164    1.59465424175889
H           2.52789187241156   -0.91926979993326    2.28478228199252
H           1.13083704481267   -1.62355354174389    1.57315636961774
H           1.19218547168574    0.05253951059965    1.76773520296357
H           2.16925478963981   -0.69639112489951    0.60183380693046
