    23
        -45.36483583  Gyration_radius:  2.23664869982 Dipole_moment: 7.872
 S          -0.24339604677084   -1.85252638810742   -0.65078806494461
O          -1.38453806719337   -1.07032888950101   -0.16754056650752
O          -0.18309393531754   -1.88328493230431   -2.09365991489148
O           1.05208625032961   -0.97018906282970   -0.21609979926081
O          -0.09598084843099   -3.08231401149452    0.07581821529177
H          -0.16456564838329   -2.13883622828994    1.47159578456766
H           1.08792911170527   -0.32331656446882   -0.93566410170683
O           0.06782075245173   -1.56068572179032    2.23479387688579
H           0.97865245964059   -1.79143613800026    2.43448270942089
O           0.34522492553715    0.71775917629692   -2.21083926961158
H           0.11160848680931   -0.20397260409685   -2.46140878906424
H          -0.48642977252571    1.11778303065341   -1.91492204029502
O          -1.86192215715046    1.35129156637214   -0.57006364268634
H          -1.75490612556898    0.34758668112235   -0.51589564570457
H          -2.80486559057855    1.51041341232108   -0.62623344216507
O           1.86800587452135    1.83297206011154   -0.14503106925648
H           1.41341193763675    1.69498189813387   -0.99449419573802
H           2.66356737964233    1.29722487833437   -0.17677353027991
N          -0.12215679337527    1.01124538300528    1.51303370079057
H          -0.91980502249903    1.19925603519795    0.86600219066986
H           0.74050369615120    1.29408366308681    0.98740927982626
H          -0.21881002128647    1.53959696422696    2.37470570238151
H          -0.08834083534719   -0.03730419798266    1.72157261227714
