    23
        -45.37222830  Gyration_radius:  2.32592293077 Dipole_moment: 3.883
 S           1.57917080480486    1.42306176656660    0.34659565716851
O           1.68317123271128    0.35888938210497   -0.65551791322540
O           2.52136906771732    2.48426595271920    0.22674363470080
O           0.14005896799253    2.11407449576768    0.00298204551905
O           1.41071359852429    0.86289885893438    1.67529598407524
H           0.42261376387447   -0.25992333374502    2.13257159136543
H           0.37518317526828    3.00332091977312    0.24344819117199
O          -0.20866030221737   -1.00793145326876    2.33590929175315
H          -0.11247702864152   -1.18749565235004    3.27189400078447
O          -0.17587735669386    0.69833674061123   -2.56067074278130
H           0.59826581117858    0.60569622307194   -1.97103213846835
H          -0.54959768402916    1.55910495966579   -2.36151122944156
O          -1.98164848993961    0.33792045598062    0.62846712101263
H          -1.59306805880560   -0.15221507786886    1.36758516569657
H          -1.34959772545390    1.03844891179604    0.41897053380283
O          -1.66150165999288   -1.26949661211130   -1.49809581224791
H          -1.23613333101777   -0.62147819481557   -2.10138937153251
H          -2.05527935710158   -0.72074885657954   -0.78594898351945
N           0.45143406504718   -1.88659552966689   -0.13768857903236
H          -0.44647798580747   -1.77226742397142   -0.74373163521339
H           1.04573078347882   -1.02918297067248   -0.34024396247702
H           0.18769054065836   -1.84045263798626    0.86284171580543
H           0.95491714808131   -2.73823094383654   -0.35747458487460
