    23
        -45.34744032  Gyration_radius:  2.4412180258 Dipole_moment: 4.553
 S           2.17523064076304    0.36128441627447    0.40013024528467
O           1.63223494006552    0.57212831329298   -0.89442451737509
O           3.17037795651701   -0.64470394616641    0.58945371471018
O           2.82431902241498    1.73520111377307    0.86447875389963
O           1.06940409277407    0.15836821354913    1.44598106559263
H           0.22256079648970    0.71277033793109    1.24586302353110
H           3.54160486078798    1.51702001712069    1.45601388197536
O          -2.74578082107805   -0.35273029439184    0.56532976862065
H          -3.50466187975591    0.00950138553545    0.10413163250703
O          -0.75332333496786    1.55753746498681   -1.83414197320197
H          -1.00812076139581    1.88055496391497   -0.96475936221875
H           0.17424489052398    1.29964259761698   -1.73507409893115
O           1.10211051456352   -2.34351303439796    0.06284565679308
H           0.76883400602159   -2.40735488747506    0.96070602787939
H           1.97906563437367   -1.94547971055348    0.12679887704894
O          -1.04770773747917    1.48726767520107    1.10164797139671
H          -1.26773694730777    1.83120542330164    1.97003326437194
H          -1.73196409649685    0.75642612738753    0.90508491938159
N          -1.28676683772672   -1.30331968540858   -1.35465195345795
H          -1.62860742590582   -1.95498562383420   -2.04901932133389
H          -0.40972381827602   -1.66975916624487   -0.99145731988131
H          -1.07667861414066   -0.42198275867414   -1.82136157874233
H          -2.19891508074950   -0.83507894272614   -0.15360868784862
