    23
        -45.35625923  Gyration_radius:  2.33324506443 Dipole_moment: 5.627
 S           0.50879683564589   -1.24834026127640   -1.80322458757808
O          -0.85304656516332   -1.66636255589679   -1.56253779011161
O           1.18120315472008   -1.74567785199852   -2.94160855700682
O           0.51500425866334    0.30999869049401   -1.84009286834363
O           1.33386549326495   -1.53697130140159   -0.51428834644846
H           0.71441209417893   -1.97977605813052    0.15839791050333
H          -0.32373101455218    0.58472640220000   -1.35769821733067
O          -1.03008403293811    0.02507467939808    1.86763935241466
H          -1.34909184541928    0.38541024702285    2.69580669026770
O          -0.50741555500996   -2.47849425920952    0.96478373964505
H          -0.79246606918449   -1.67429248326541    1.44207387742004
H          -1.03513236032370   -2.51426362814272    0.15246626974970
O          -1.71666279627462    0.72430928802183   -0.63155927352955
H          -1.57526779450862    0.53725727950869    0.32324356172310
H          -1.98945483218131   -0.11837915343493   -1.02146685036211
O           0.40112454027199    2.89680468950451   -0.56207394280722
H           0.77911927719897    2.50984129172932   -1.35720151390053
H          -0.54057901610717    2.70293537467106   -0.59292874839469
N           1.35965483249826    0.89027005726353    1.32475248929367
H           2.04447971452948    1.11342938034866    2.03505708855917
H          -0.07447472674842    0.36312492119850    1.74262100717846
H           1.19003342133081    1.72956691250068    0.76910315382923
H           1.75971296611212    0.18980832888748    0.70873557523370
