    23
        -45.35809010  Gyration_radius:  2.29512540135 Dipole_moment: 4.170
 S           0.75454130936664   -1.03903421943951   -1.38501881834939
O           0.29310559407246   -1.50101893182620   -0.09275125348307
O           1.93469629217093   -1.63395091015223   -1.88679533961218
O          -0.43500764256409   -1.25033734360467   -2.37023024219576
O           0.94185331090804    0.48746389867021   -1.36721175748568
H           0.08874993910115    1.00229793857533   -1.16335759700444
H          -1.27690980802160   -1.16704314236818   -1.85529132761551
O          -1.21342198568698    0.12719921132151    1.36122583926852
H          -0.64647454557046   -0.57894287465123    0.99493625083005
O           2.70540923046911   -0.53821004995641    0.76181067738642
H           1.93092119938697   -1.10890725360625    0.69166875786340
H           3.16774962702656   -0.63735805589599   -0.07362867852902
O          -2.58865590002497   -0.99536854676807   -0.84295217699610
H          -2.96733788138327   -1.87040908024720   -0.73549076990937
H          -2.32097676552819   -0.70001157722496    0.04395777019319
O          -1.27299913192915    1.61803711537874   -0.80227505231219
H          -1.36803558666790    1.19693004596371    0.09327443302349
H          -1.98067264711957    1.26557378865571   -1.34881549007286
N           0.94504317354465    1.54240276203020    2.03778326267188
H           0.97783443046008    2.39107017849506    1.48561828437246
H          -0.54862834691232    0.70493286472121    1.82188252099705
H           1.64460383433746    0.90940674166028    1.65203542430486
H           1.23461234043124    1.77527745283376    2.97962527108292
