    23
        -45.36924297  Gyration_radius:  2.45727632218 Dipole_moment: 3.192
 S          -1.03401460378213   -1.66505493949342    0.45533869262876
O           0.09279332910863   -1.10858424528888    1.20584467513806
O          -1.31572025251031   -3.03906198399607    0.71067624714277
O          -2.32313058408883   -0.85680176820388    1.00876838044155
O          -0.94336692792636   -1.27247108111177   -0.94747851216392
H          -1.62014957062049    0.25528557177246   -1.08903762869823
H          -2.78180497662500   -1.57188595535554    1.43550334604449
O          -1.86547576684182    1.19022768954581   -0.90952070893354
H          -2.54686625876740    1.13645218427516   -0.23472654392861
O           1.26738057877063   -1.07745206104035   -2.39379204707334
H           0.48001106305007   -1.21224620115825   -1.82264249109000
H           0.94662868151363   -1.14984083168592   -3.29438857398608
O           0.31775362543085    0.97422828926629    2.99043135277554
H           0.19477294198305    0.12300112462202    2.53606285696327
H           0.49784131650984    0.76665000260910    3.90769517474746
O           2.52421821635037    1.10262808328043   -1.55053528900800
H           3.38037445881195    0.80206614861072   -1.24150411023652
H           2.09606826369636    0.31361999680534   -1.96243486118099
N           0.53983675707614    1.28725957872357    0.23565660006635
H          -0.36363897953359    1.50718497362820   -0.25005736455685
H           0.45608068443304    0.27736434554895    0.54342461357910
H           1.35198229097235    1.37942574207489   -0.42089260039734
H           0.64842571297786    1.83800533656726    1.08760878171063
