    23
        -45.36945915  Gyration_radius:  2.36867996254 Dipole_moment: 5.818
 S          -1.44774711704136   -1.09762086302948   -0.54578266086488
O          -2.03966642572486   -2.17754388975912    0.18454662904745
O          -2.14287882980608   -0.67061126702119   -1.73671335986136
O          -1.58796235436196    0.19617508313136    0.47296202968569
O          -0.00545342426179   -1.18622427881831   -0.72762036441708
H           0.29440449257457   -1.86188881130691    0.75667941395827
H          -2.51594334573013    0.16601899402885    0.68413544809062
O           0.27024510665669   -2.11602043117404    1.70169867633936
H          -0.63150371569280   -2.43462411211626    1.81046662501265
O           1.79759415849318   -0.15630875784892    2.56869686973671
H           2.67430182042509   -0.53457457737584    2.47897486102813
H           1.17313772270801   -0.90335032669162    2.39217329646931
O          -0.90544280036442    1.50903398693486   -2.47948694449529
H          -1.17890483298931    1.65391132931315   -3.38695466108389
H          -1.38340845126335    0.69261163381924   -2.19187253249743
O           1.52202954274057    0.74050952044342   -1.69951624884504
H           0.76577452431512    1.16124022956420   -2.16460477454841
H           1.18013580713882   -0.15611516313961   -1.50990031987668
N           0.84140288564295    1.46202327513120    0.69162029398525
H           1.32046475130554    0.89154524214395    1.44327470294162
H          -0.13426873212336    1.12647048652482    0.64335188820166
H           0.87073083331655    2.45397075480681    0.90106023957497
H           1.26295837404466    1.24137193246090   -0.28718909760787
