    23
        -45.38060775  Gyration_radius:  2.25779163314 Dipole_moment: 4.702
 S          -1.18734566694439   -0.67574773352429   -1.32241466786112
O          -0.22373472798850   -0.79028099943260   -2.39037400976993
O          -0.98544384274922   -1.59448157240142   -0.21977613694214
O          -1.31594348217842    0.70396415900742   -0.83466115789133
O          -2.58981197622544   -1.03684652276715   -1.97135658129083
H          -2.35499809162409   -1.07819345077001   -2.89191397670295
H          -0.00090048690298    1.57040530773211   -0.53809508392738
O           0.80884668459102    2.06504144624950   -0.24215798991266
H           0.68516826365329    2.97001545840836   -0.53170754125787
O           1.45669303999646   -1.58863362088871    0.82631320345711
H           1.93075001150518   -1.20577195493106    0.04802064096473
H           0.57544047909640   -1.82244339689204    0.46618259140072
O          -1.89239446045960    0.10301829297450    1.64961540605746
H          -1.87015752274243   -0.84061723205987    1.43724812961678
H          -1.87322431364633    0.50884305319581    0.75597070899554
O           2.15110123086159   -0.20091824233574   -1.30906864082388
H           1.96511150136998    0.71124606596536   -1.05124977435498
H           1.38197470517745   -0.47686820977455   -1.84611874796781
N           0.68150585756315    0.55613755576596    2.02634759803141
H           0.87935254851683    1.29823615654404    1.33201626680541
H           1.09431483085169   -0.37474949780954    1.62127312079320
H           1.05787149606059    0.78135832833781    2.93969358506155
H          -0.37417606779843    0.41728661938675    2.04621305751656
