    23
        -45.38134562  Gyration_radius:  2.27240391382 Dipole_moment: 3.511
 S           0.65866577135647    1.60935807206046   -0.25421146618285
O           1.69378796929871    0.61551016465801   -0.53838460489690
O          -0.57554225890977    1.35420660863695   -0.95601593434822
O           0.48029053520678    1.77341167354129    1.18124239353271
O           1.21105320374544    2.98855337644067   -0.79970885376664
H           1.97826508210522    3.13769572000558   -0.25666898506903
H           1.12929938808749   -0.13282219641229    2.20825023218667
O           1.23259025493209   -0.85580800503275    1.58042013125741
H           1.52410994174795   -0.39587172932068    0.76045584915664
O           1.44402872434513   -1.55170938500986   -2.07759718380092
H           1.60244245877038   -0.69767249068131   -1.62657901761531
H           2.04553478477233   -2.17924137325016   -1.67366022463424
O          -2.04737021804296    1.10134325242565    1.35445073919927
H          -1.12832675999340    1.44333794312982    1.44709425003835
H          -2.30208793293449    1.39527619809507    0.47309912480396
O          -1.18307800568199   -1.14458044133243   -1.67795081248924
H          -0.31240095080694   -1.46198930232458   -1.99069340834961
H          -1.06976580155035   -0.17440432292246   -1.61221505558524
N          -1.28985426125735   -1.39628416030806    0.90823011029407
H          -1.72967315002583   -0.46848732992960    1.17760535312503
H          -1.77958166675000   -2.18245406972801    1.31961702143713
H          -1.29790989172029   -1.42923993911000   -0.17042502615078
H          -0.28447721653335   -1.34812825355306    1.22364535587931
