    23
        -45.36359271  Gyration_radius:  2.58185743167 Dipole_moment: 5.598
 S           1.55217864591481    2.11601710971701   -0.05224546316404
O           0.49429670030737    2.01289216590871    0.95889828549439
O           2.51320983696988    3.14339495887561    0.18329641757678
O           2.38526063331310    0.72408431447348    0.10650085773334
O           0.98478130968160    2.04622432108333   -1.39005147283373
H           0.17608108047410    0.85445662284233   -1.93917155250263
H           3.17080498848082    1.06531449465864    0.52044448749969
O          -0.43563256196927    0.10171153379301   -2.20645417712700
H          -0.56819120369237    0.19478706049264   -3.15064870897193
O          -0.22357223821841   -2.83313618243130    1.18452948693501
H           0.33445747219172   -2.39494697509493    0.49646521383171
H          -0.42250923614981   -3.70688621396194    0.84592029069115
O           1.13889824289202   -1.63009938397287   -0.74803806945719
H           0.54553040739829   -1.18572867557748   -1.37552562782615
H           1.70492901887699   -0.92716880722385   -0.40044430320070
O          -2.09912407713699   -1.11805505573886    1.87951430775290
H          -1.44416155559037   -1.81659138126830    1.62748870081372
H          -1.85465249711400   -0.84690150122961    2.76636689662436
N          -1.61477983578410    0.83667208054068    0.13151401503160
H          -0.72194306006721    1.35199413938232    0.49595373200135
H          -2.37997632214354    1.49849297371765    0.06032370547253
H          -1.38050113442045    0.45229566160498   -0.80142982991122
H          -1.85538460419001    0.06117673945827    0.80679279750822
