    23
        -45.35638915  Gyration_radius:  2.38907555703 Dipole_moment: 4.687
 S          -0.76265524711164   -0.81770779770672    1.85830890354277
O          -0.98138887920578   -1.56622865265218    0.62663813255984
O           0.60592279119938   -0.44848974674824    2.07392197964426
O          -1.70283045395451    0.31313059826936    1.95113039389853
O          -1.18408318508308   -1.78362240554197    3.04407960905686
H          -2.11531124517511   -1.90464403945099    2.88621858962268
H          -1.70790923939124    1.19129069361643    0.87966321871724
O           1.34265958916953    0.36652247077572   -1.92019153030950
H           1.96253323609211    0.28173931805261   -2.64527658234949
O          -1.31374929707009   -0.19220939317112   -1.56077958204254
H          -0.39811040640291   -0.05029182231934   -1.86652695021785
H          -1.24398914863206   -0.83663288824309   -0.81108897111074
O          -1.65398196583539    1.75367355703086   -0.03750488465866
H          -0.73382776384483    2.16742850783865   -0.07756626533495
H          -1.62637207798142    0.98373553851541   -0.77015452255083
O           0.76307118447560    2.55616077190044   -0.47510673948656
H           0.88461055801987    3.31859455602261   -1.04346388780721
H           1.07906821601775    1.77045545834164   -0.97292444502561
N           1.81481028324959   -1.50431073165434   -0.19216896395488
H           2.72448490925153   -1.91948328054844   -0.03267223135676
H           1.14969263893021   -2.25172063854705   -0.35625726980179
H           1.51200291839914   -1.06563238093925    0.68346764270417
H           1.58535257488506   -0.36175770285322   -1.24174565372888
