    23
        -45.35779771  Gyration_radius:  2.30982318932 Dipole_moment: 5.142
 S           1.64543702454945   -0.21029658254343    1.35086383365204
O           1.83991924742677   -1.36409027328575    0.52429966787429
O           2.57550506301165    0.08082398823586    2.37500241014774
O           1.54335569373846    1.05038597021096    0.42221508915044
O           0.22482464690632   -0.27123587757269    1.98841263441388
H          -0.44183520260961   -0.69013489112873    1.36348825395701
H           1.14738962897396    0.82914933024012   -0.47994802539294
O           0.50610338417795    0.59552540291545   -1.88510558337177
H           1.16077052723651    0.78286760095496   -2.55965068161116
O          -1.85322384733128    1.27689289865521   -0.53958504821514
H          -1.15520618790736    1.26755088513137   -1.20840882178294
H          -1.51775170312879    1.83895929713236    0.18922600185885
O          -0.55893212188067    2.46039195877946    1.53980871257574
H           0.33073333608001    2.24123973363911    1.22628103166509
H          -0.67672013471203    1.95631919995445    2.34899937417905
O          -1.67126932191176   -1.10990688452036    0.46158418802871
H          -1.82798653448121   -0.22345616393979    0.01673020742522
H          -2.42841115721782   -1.26015735329484    1.03084801998075
N           0.20853287952042   -1.96412261714155   -1.68586408581149
H           0.39265431567792   -2.67565753557142   -2.38051818478045
H          -0.69546948183260   -2.14620347306960   -1.26586485556700
H           0.89962067404149   -2.04616664789576   -0.93940291472024
H           0.35195928161870   -0.41867794589890   -1.89341122368596
