    23
        -45.36512663  Gyration_radius:  2.54797890108 Dipole_moment: 4.380
 S           2.43634612068097   -0.52185022721200   -0.68436930756440
O           2.14623234030503   -0.88178458092790   -2.04949204923482
O           2.47526571967334    0.92617597779759   -0.47973792252953
O           1.54824841313018   -1.17180490015947    0.27799581401593
O           3.89421665151655   -1.06311154977270   -0.34881813623501
H           4.41718788862213   -0.78776695070222   -1.09679108747856
H           0.24130162372512   -1.19623098837968   -0.70691035887808
O          -2.42897179752089   -0.96789603384728    0.58358755323580
H          -3.06799070170651   -1.67933440429592    0.52404233839607
O          -0.49126137132081   -0.95807376784619   -1.32524075409612
H          -0.06560211790904   -1.03188787894777   -2.18620801017466
H          -1.83453091993015   -1.06350249079586   -0.18266631212366
O          -0.15662350379675   -0.15770281197119    2.10368033118091
H           0.56875410399915   -0.65270305612007    1.67592258396505
H          -0.97197327850678   -0.62805642267152    1.88071683395718
O          -2.65766997999647    1.85294324565169    0.46585073370190
H          -2.67048863269542    0.88736184647713    0.55804731049546
H          -3.38128353823662    2.18316843581453    0.99885956947633
N          -0.00687511159751    1.42114037069982   -0.01058661654571
H          -0.47471729280903    2.32243328759344   -0.05705673803923
H           1.04328192207102    1.42317848271630   -0.20576483100526
H          -0.13369133006430    0.98500380337650    0.94980745725008
H          -0.42915519763885    0.76030060352438   -0.68486838177133
