    23
        -45.37878826  Gyration_radius:  2.25933435272 Dipole_moment: 2.887
 S          -0.36296745998795    0.79433143558082   -1.14312886168757
O          -0.97156744477766    1.18557026883783    0.12817037026768
O           0.65922830662666   -0.21523139381027   -0.95572881395568
O          -1.34792845256952    0.45517688449115   -2.14283813676726
O           0.38876448182242    2.09219443977936   -1.68849227784077
H          -0.30538239355600    2.57874481419275   -2.12301026636114
H          -1.62253758496628   -1.16704971642306   -1.87711783682093
O          -1.59574615486781   -2.07728761700953   -1.50357240386601
H          -0.72261709224980   -2.41032428435902   -1.72576037991590
O           2.62662116494911    1.40505296053412   -0.06455047807663
H           2.54752173034457    2.19680848844159   -0.59971915812208
H           2.02865217316392    0.75560068220919   -0.47486865871222
O           0.96001859078927    1.12597535593916    2.07951860200583
H           1.74484228493887    1.36129989785612    1.55272038890479
H           0.20759060220200    1.30698736626299    1.49101652974689
O           0.98419247982147   -1.45525346352386    1.53618308353332
H           1.22858611858002   -1.29874299055373    0.61222687983173
H           1.09181962098791   -0.56356369529524    1.95769579214274
N          -1.54128231234757   -1.22984792280701    1.01236403879041
H          -0.54281401331076   -1.46539250917143    1.36025359575676
H          -1.50369868429433   -0.20513026545903    0.78468536705499
H          -1.68977551369329   -1.72246453345332    0.09164764739586
H          -2.26152045764031   -1.44745420229289    1.69230496669019
