    23
        -45.37704142  Gyration_radius:  2.43403659135 Dipole_moment: 5.274
 S          -0.70129676738743   -0.04582066059510    0.51114934577869
O           0.66411293341699    0.49304889951232    0.66314624687646
O          -1.54281408766499    0.24634465089547    1.63689323142024
O          -1.28456828571359    0.67701120216275   -0.76183790455418
O          -0.65711373695604   -1.45580509741310    0.14082891855428
H          -0.41477592423076   -1.44005311219177   -1.53313511288257
H          -1.08585600311761    1.63627571035600   -0.56417525272282
O          -0.02121800703085   -1.22691664162231   -2.40934031292846
H          -0.50351203204913   -0.44829996620693   -2.69978166254887
O          -0.42706123444494    2.92599318246971    0.12337422102759
H           0.28769682125760    2.38017547989592    0.48230603475657
H          -1.00724929637892    3.11651143058650    0.89225331177667
O           1.38903931808627   -3.10604852876362    0.45957672684575
H           1.12587063549745   -3.95094867642352    0.08996681480264
H           0.56538754614167   -2.57286393381971    0.52166710356709
O          -1.99734648821183    2.77042904006645    2.28133971096656
H          -2.95052772679134    2.87098447554279    2.29751131709904
H          -1.83066823205577    1.80633836682481    2.19097809047254
N           2.12351588875856   -0.93084565040107   -0.88495975379231
H           3.05382031657217   -0.60974402426837   -1.12730600973991
H           1.47569140535549   -1.01087590234612   -1.70903588761281
H           2.12385309754395   -1.86084005436861   -0.40349906144475
H           1.61501984941252   -0.26405018987681   -0.19792008572596
