    23
        -45.35452569  Gyration_radius:  2.46317741011 Dipole_moment: 4.896
 S           0.18416709346887    1.74093141855229   -0.96423965763088
O          -1.08271310916079    1.36417501355414   -1.48995922119754
O           0.76108316829916    2.98142666483358   -1.37273749479208
O           0.08452804270571    1.71586399494875    0.59953809002041
O           1.23933543909375    0.63954858876003   -1.24634053847439
H           0.84723871886892   -0.29568949685158   -1.25517976937350
H           0.96765629843503    2.05614644139847    0.88840621349677
O           0.39325612052659   -2.40144917831237    1.27400554739115
H          -0.01735493602692   -3.25105691322840    1.44466430134871
O           0.43340034093445   -1.78825618781501   -1.24261466936594
H           1.14162684239637   -2.28028485171367   -1.66299590487893
H           0.44776978891882   -2.04019419663490   -0.26726797418548
O          -2.35755417285287   -1.02283294850437   -1.00681607890680
H          -1.60712117469816   -1.53853165774083   -1.32001964111570
H          -2.14498849201825   -0.11030691476660   -1.25489301652820
O           2.50702824366631    2.65082313091121    0.59278951194861
H           2.13346087450044    3.08147098743301   -0.19774487805071
H           3.10952073173177    1.97487596272875    0.27196383214503
N          -1.49411029895399   -0.63641669274221    1.70564252310493
H          -2.03644046002851   -0.80429078553470    0.85403076932123
H          -0.28803947171178   -1.70829727124402    1.55327911209102
H          -1.08589731594923    0.28679164783157    1.60874790989742
H          -2.13585231225890   -0.61444676578692    2.48774102371652
