    23
        -45.38060512  Gyration_radius:  2.25703652891 Dipole_moment: 4.410
 S           0.28457126785368    0.66233556678373   -1.75697730867866
O          -0.05722750464360    1.70746551353434   -0.80739616217780
O          -0.85745219976172    0.03202670960701   -2.37370247490455
O           1.08357137343579    1.35423146577628   -2.94083789397860
O           1.21640272650679   -0.29981016207311   -1.16268938261078
H           0.67116358984767   -1.51358829619237   -0.26558733221415
H           0.44686786852795    1.29443084382272   -3.64460947046148
O          -2.19628261922161   -1.18354975553004   -0.40334300253871
H          -1.85215058882516   -0.78140451367637   -1.22564693925202
O           0.34422241810827   -2.18856775394803    0.38576146249778
H           0.82514861132656   -2.99483934572620    0.19376161251593
H          -1.50662262117483   -1.79345634231267   -0.11099496629393
O          -1.77304393222893    0.95981625959027    1.07713297483251
H          -1.26588258360096    1.42381576915187    0.37770119895032
H          -2.16936637934994    0.18767343247495    0.60391485409344
O           2.02656413961054    1.24896111159504    0.79239458763888
H           1.42664910352779    1.92601818406142    0.44346805611553
H           2.03293241504147    0.60180773360451    0.05715834222177
N           0.27244442265223   -0.14214520549301    2.19064396597919
H           0.31186006457181   -1.07390137031206    1.74185305866782
H           0.31844896548506   -0.20563895516623    3.20081136868410
H           1.06669424003690    0.43998095786603    1.78411442271404
H          -0.64951277777300    0.33833814225971    1.84306903818962
