    23
        -45.38269028  Gyration_radius:  2.23827440397 Dipole_moment: 4.665
 S           0.70881464008549   -0.10587531509790    1.20217790518707
O          -0.67536146232790   -0.58231445831354    1.31391351262489
O           1.54375054829809   -1.02845861358338    0.46375270482486
O           0.71592227702074    1.23701361011676    0.62069926337933
O           1.30230932390332   -0.00605527424515    2.64444859939114
H           0.68809408860291    0.58875672032062    3.11468797306108
H          -0.71124686946610    1.39039277642912   -0.18756529810036
O          -1.57606286784299    1.23912737766621   -0.64154944598478
H          -2.06643884115596    0.68255435071727   -0.02785067249940
O          -0.84565887411916    1.52490793789132    2.97178187254737
H          -0.55480647664340    2.16218450377985    2.31152597392242
H          -1.14198223268808    0.74541045907539    2.47317735280045
O           1.97250039671911    0.35388060897832   -1.71833527040136
H           1.84612124329615    1.21429393078939   -1.30218728778823
H           2.02381977406090   -0.25608061153472   -0.94728492334810
O          -0.56595567445591   -2.42192610067989   -0.57646330407973
H          -0.77465441447818   -1.84345983757054    0.19108619228030
H           0.35751205711745   -2.65274239688087   -0.42220490494014
N          -0.46059514859105   -0.45412053636756   -2.33556796763189
H          -0.75905041941067   -0.58445485936100   -3.29560482886279
H          -0.54441502035905   -1.34637620540019   -1.76023297592176
H           0.55268447724442   -0.13268615951588   -2.26530648984900
H          -1.03530049480703    0.27602808277443   -1.82709797063679
