    23
        -45.37631814  Gyration_radius:  2.30185850247 Dipole_moment: 0.957
 S          -1.45429842190881   -0.57688916749401    0.70829038216880
O          -0.42461957237365   -1.50402092245100    0.24193874695060
O          -0.87402245201687    0.57658051904310    1.37027482697340
O          -2.39533852441960   -0.24626114279314   -0.33926459979075
O          -2.27142490820014   -1.34692792901223    1.82482462443282
H          -2.74988846582849   -1.99319088408968    1.31621997906875
H          -1.61206120638783    0.34976539003730   -1.63672418898491
O          -1.07324567094317    0.76159150034573   -2.35585666032917
H          -1.69986700997947    1.15994023125618   -2.96222177629348
O           0.95503248240900   -1.22727367832608   -2.21771863733224
H           0.41248693828871   -1.67742987321592   -1.55946227397385
H           0.38739587372438   -0.52577146618528   -2.56058929009448
O           1.37328784631828    0.34580045860329    2.79997880002295
H           0.47781158454048    0.38929621322027    2.40140241849644
H           1.44070288715478    1.10573907201171    3.37991080674529
O           0.51070693781352    1.94266822478892   -0.49719697018855
H          -0.09464289291019    1.71565763967524    0.23254621390219
H           0.03096774112103    1.68828171071370   -1.30772440155674
N           1.85601833031732   -0.19395121122983    0.23016475351045
H           2.58464108615148   -0.60483547197954   -0.34584728932042
H           1.50351182624730    0.72577749247437   -0.17680747350688
H           1.00531645551543   -0.82510846274341    0.23332489047140
H           2.11152913536420   -0.03943825265247    1.22053712863473
