    23
        -45.34952956  Gyration_radius:  2.61267363658 Dipole_moment: 4.239
 S           0.78485886907354   -0.95356585256986   -2.62174256465926
O           1.12814259458924   -1.23319966718725   -3.96977093730061
O           1.02702182415331    0.34850672769994   -2.09212928470204
O          -0.80680060542258   -1.18057999426604   -2.49138367652058
O           1.34441044472692   -2.03106295288146   -1.69790020168139
H           1.01986807135491   -1.82652395592402   -0.72852105258940
H          -1.00144990316185   -1.86171278333121   -3.13060164110942
O          -1.64902439505751    0.09876372796664   -0.00959784182690
H          -1.73593760412850   -0.16859749678993   -0.92917968732377
O           0.42009294346292   -1.50654437668103    0.55890915859417
H           0.93564947306664   -0.88962698216364    1.11853979254953
H          -0.42007122397972   -1.02566572051175    0.37418134602769
O           1.23915299430694    0.30715262760335    2.40487207120225
H           0.28655930949220    0.40178570737816    2.62796333538713
H           1.65572764823936   -0.10125611745445    3.16512611066510
O          -1.44063133322443    0.54139326593884    2.73073226198692
H          -1.73773850327909    1.45252541012687    2.76695892619509
H          -1.72393815576287    0.20420722302884    1.86734213808835
N           0.17989184137849    2.02089299717300    0.06013342064330
H           0.80445709075034    1.83150604589233    0.83656119141546
H           0.11248795502564    3.02448833572661   -0.05047808008551
H           0.62833392411865    1.64533705637504   -0.77376820785558
H          -1.05106324980007    0.90177680483927   -0.01624657710782
