    23
        -45.35575839  Gyration_radius:  2.34493055715 Dipole_moment: 4.790
 S           0.40050759786427    1.25987020488447   -1.63405901349824
O           1.49014527412887    0.54917689100647   -2.21183227537965
O          -0.91391466197386    0.70698835802783   -1.73765144716788
O           0.70411719456677    1.58947288205226   -0.17166105315195
O           0.35271287430175    2.68404488706606   -2.31919419412224
H           1.23693353681530    2.88232738512444   -2.61963940740259
H          -0.22979363639427    1.66360310898137    0.30558247121695
O          -1.39480076907922   -0.79742641947120    1.81327088662768
H          -1.72858896030312   -1.07745847401930    2.66618920672863
O          -1.61606952423328    1.57873868465678    0.72303044864889
H          -1.97150599936321    1.37609369657258   -0.15334895291924
H          -1.63569951728882    0.71845332784018    1.22123895503701
O          -1.23656273841639   -1.89541403944153   -0.80060269878005
H          -1.28173911570678   -1.06697156535375   -1.29631992649657
H          -1.43372652430296   -1.66683489664930    0.11934798167063
O           1.49722849583981   -1.82306334198618   -0.71437772792306
H           1.65883812947344   -1.10858060610767   -1.34294627634984
H           0.56146117548767   -2.07676417737748   -0.83201326287721
N           1.21009707860885   -0.69048653745418    1.84466483602738
H          -0.37776947683388   -0.79682514609054    1.87675670339187
H           1.49944953264506    0.27054384539239    1.70785165649189
H           1.77552744665579   -1.09085409456215    2.58236293217901
H           1.43315259758400   -1.18863399331901    0.97335018810941
