    23
        -45.37668534  Gyration_radius:  2.34911655361 Dipole_moment: 3.200
 S          -0.43281776612614    1.66391133851369    0.23063696535925
O           0.36161588170797    1.20948889863914   -0.91882622991470
O          -1.01299509727288    0.55131539533359    0.94311882311497
O           0.29624595676046    2.58517881234459    1.07096612699158
O          -1.63915513437944    2.50009855707858   -0.40106928857892
H          -1.40450420925096    3.40454742726275   -0.21455340670153
H           1.04049673282273    1.43694222939273    2.11093704661029
O           1.27458041893767    0.56395308924817    2.49134451647260
H           0.42159631153454    0.16429541206457    2.69237285622182
O           0.73734148800381   -2.83194512332534   -0.32476363388489
H          -0.21131130830926   -2.51644707727228   -0.23002085051236
H           0.79972997508119   -3.19338154711357   -1.21046425005832
O          -1.63151339573215   -1.77510813550239   -0.24132814317428
H          -1.51248000621811   -1.01718988512358    0.36037963847030
H          -1.76717297131919   -1.34796431928266   -1.10835404100138
O          -1.68313539893046    0.07975311545234   -2.23180082328524
H          -0.88179184268893    0.50163658324599   -1.87079887906991
H          -2.39620762427463    0.69501713339955   -2.04876712116565
N           1.95586733639591   -0.54743169781326    0.17636649569236
H           1.53990388181706   -1.51355278482191    0.00819289987776
H           1.39898919375172    0.14891225783989   -0.39337776306818
H           1.80679129549785   -0.24248152831063    1.17883621397250
H           2.93992626221335   -0.51954818124075   -0.06902717238319
