    23
        -45.35287638  Gyration_radius:  2.34271559244 Dipole_moment: 5.858
 S           0.19108999887749    0.86789468490505   -1.85410843014368
O          -0.82324555937963   -0.15073938383713   -1.91433100615863
O          -0.14200372986078    2.11665397035780   -1.27702050370064
O           1.43925009752944    0.28645397282735   -1.17660030458150
O           0.66886422453284    1.12109724173213   -3.33366207221647
H           0.50919488370888    0.31866666506301   -3.82539874188670
H           1.28486718294045   -0.74800777214931   -1.07251214741293
O           0.16179084181336   -1.73966818110658    1.60837910384304
H          -0.07317558391544   -2.32283583817037    2.33059395389957
O           0.75895468369593   -2.08910621275442   -0.92175432825362
H           0.61548518069933   -2.12707062454132    0.05861589209685
H          -0.10541146256753   -1.88077045919385   -1.30604407906683
O          -0.57768704440065    2.21717430006900    1.51597178250637
H          -0.46590554555320    2.49019575927313    0.59690722573997
H           0.27368066341663    1.81964195123721    1.77414848697134
O           1.67982558532787    0.63211269393499    1.69427215459800
H           1.26671794259184   -0.23785510284358    1.80824119550551
H           1.92468227198981    0.68889168897695    0.76558580576003
N          -1.82119199938267   -0.22909897342311    0.88239560592429
H          -2.78593207843756   -0.37810556953703    1.14913567671875
H          -0.66255466969573   -1.17418721369321    1.39498481805853
H          -1.77813176066233   -0.17628326662557   -0.13086910577532
H          -1.53916413328160    0.69494567950970    1.23306904757146
