    23
        -45.35580683  Gyration_radius:  2.42979299689 Dipole_moment: 2.569
 S           1.34567095694065   -0.57301710821210    1.59031080065836
O           0.87714399396137   -1.24890632546662    0.40904304793994
O           2.34762268034851    0.41902231840355    1.38227675233234
O           0.17198650938387   -0.05683660677486    2.39963722885699
O           1.94231095870296   -1.66284676051305    2.55824178047600
H           1.27412697618282   -2.34154376315449    2.61900846846912
H          -0.55155448097578    0.48391662528503    1.79598123344387
O          -0.43701477889908    1.52819800670589   -1.45197498852230
H          -0.49344616069332    2.43613852065837   -1.75287473562886
O          -3.03905641521377   -0.90456124822980    0.25092493673645
H          -3.85758141836186   -0.74312686802005   -0.22037043144656
H          -2.37256500948194   -1.17756044455574   -0.42816466460806
O          -1.47826553897769    1.09938906699515    0.98545948937554
H          -2.14987074298545    0.38761469281407    0.82311253773401
H          -1.07090501654067    1.28479154540938    0.10686780823937
O          -1.07405925860696   -1.21152151602424   -1.49754134174253
H          -0.34449183834624   -1.38814964003324   -0.88086523046324
H          -0.95754312476228   -0.28628046651681   -1.75421450969772
N           2.08869177744250    0.79240238879379   -1.42502636812248
H           2.84500919761979    1.28634777533938   -1.88300625321620
H           2.28913818982044    0.76320808011130   -0.42559257054672
H           0.53991448806021    1.28209599256577   -1.45680441866200
H           2.10473804589962   -0.16877427569836   -1.74442858146632
