    23
        -45.34744054  Gyration_radius:  2.44126347025 Dipole_moment: 4.540
 S          -1.28960354058160   -1.24110824132833    1.34945807718523
O          -0.80730174866561    0.02595317581765    1.77017346485374
O          -2.69516334545782   -1.44584824202102    1.20643277785173
O          -0.59419501914203   -1.70596555820462    0.06179339354511
O          -0.78040264961596   -2.31095510528361    2.40794849490777
H          -1.42458227854173   -3.01574381900681    2.42098004613138
H           0.38997472131997   -1.40120260256183    0.00481522946082
O           1.74350253519131    0.59437405437461   -2.14088876612243
H           2.52025034165237    1.15699470277638   -2.14218826307536
O           1.54944831928813    1.39264622626136    1.41919409621977
H           1.99331392616863    0.61720395831992    1.06317771992712
H           0.70946646495324    1.05561561679618    1.76197976119486
O           1.83248885080653   -1.06379659155985   -0.19192408683262
H           2.26525403876898   -1.85692617335472   -0.51510765600746
H           1.80427130273309   -0.41605904651719   -0.97989390504252
O          -2.41640455273999    0.28397730205431   -0.88417750389372
H          -2.17907740892294   -0.36827150851519   -1.54721296283960
H          -2.76517221810735   -0.20913115724376   -0.13135078294262
N          -0.04458398240298    2.06163082622955   -0.97131599080424
H           0.98553969662904    1.18318090680847   -1.78378573384370
H          -0.91262235417638    1.54366448418280   -0.85426132649776
H           0.39877203393461    2.12079911720898   -0.05558469739913
H          -0.28317314320759    2.99896768431583   -1.26826136589394
