    23
        -45.35761006  Gyration_radius:  2.33545666823 Dipole_moment: 4.988
 S          -0.67721343385340    0.04044547854818   -1.92929367904543
O           0.37950932710913   -0.75391789635899   -1.33564712285567
O          -1.08439421455694   -0.35540565160695   -3.22658705982279
O          -1.86461123635217    0.06754815143089   -0.92958090541152
O          -0.23721870429483    1.52056901407346   -1.92558255431567
H          -0.44832313745057    1.89032708179204   -1.00464207092676
H          -1.96061673696505   -0.85282476745678   -0.48337633796267
O          -1.92453410333148   -2.19017697068341    0.19204870957757
H          -1.71061408047105   -2.83426919576581   -0.48662120442196
O          -0.83847855567559    2.23693282656558    0.45085404405312
H          -0.16829218724592    1.84012978165730    1.05604831323421
H          -1.63426349131432    1.70064194703633    0.52532542793395
O           1.15203525874487    1.13696065728686    1.85606646506837
H           1.64813331795761    1.74855208000836    2.40274082875278
H           1.68220098323742    1.00730681269606    1.03060202729067
O           2.29611168401456    0.88062217457157   -0.52346670296998
H           2.18072963976718    1.64370941666656   -1.09474678651192
H           1.69314008444001    0.19601345317604   -0.88258605752529
N           0.39250663936999   -1.79253340080289    1.36701941066152
H           0.79132915479649   -1.58866380407455    0.45402604969173
H           0.95819924680508   -2.50437481317529    1.81099848958522
H           0.46991759073809   -0.94331092249783    1.91596715893947
H          -1.09525303546767   -2.09428144308748    0.76043356697946
