    23
        -45.37458147  Gyration_radius:  2.38400884089 Dipole_moment: 3.173
 S           1.57109502718775    0.12516382080209    0.46072923493346
O           0.59818976290380   -0.91611969292582    0.84349320493884
O           2.41819427613482   -0.29369200018393   -0.62786312794317
O           0.85081278391253    1.36436934779792    0.15776697886387
O           2.48533789158012    0.38572456413582    1.69892679528664
H           1.91784716687916    0.29191565231187    2.49240436673561
H          -1.31761421445863    1.31186569961102    1.19538161855901
O          -1.69594406516830    0.45217473005449    0.99032158945784
H          -0.91762518073284   -0.13770331990169    0.91826490448100
O          -2.84999981734957    0.66219773050667   -1.37343653471242
H          -2.55444060730206    0.61195426047564   -0.42862868684019
H          -3.38447432586646   -0.11800122051149   -1.52858645004588
O           0.65091922186178   -0.40156636498637    3.43054095594132
H           0.40592524482895   -0.76670421910005    2.55636948296108
H           0.89234596771695   -1.14698974501104    3.98413441211463
O           0.62509405298893   -1.72712489516098   -1.84313822964549
H           1.48581502485904   -1.35379030990214   -1.54402451583836
H           0.22748894688542   -2.03324931331889   -1.02010671984746
N          -0.28772904265069    0.75154341093462   -2.10040613007172
H          -1.33128591234255    0.78845413988168   -1.96825536022496
H           0.00993676819943    1.28292686736376   -2.91137790277025
H           0.18039702099831    1.12744983908001   -1.21409822620397
H           0.01971400893104   -0.26079898194660   -2.16841166013031
