    23
        -45.37100988  Gyration_radius:  2.39372333792 Dipole_moment: 4.646
 S          -0.14942398654612    2.18380784003025    0.44066308295074
O           1.03180990080791    1.46089657371066   -0.07736957643438
O          -1.05526680507392    2.51773714791348   -0.61174515762815
O          -0.73866630046508    1.45490248298810    1.56107025250749
O           0.41211342746085    3.53715081406394    1.06034724196830
H           0.80286482626174    3.30099164927431    1.89822019053788
H           0.40556840398298    0.17073520328457    2.13351058879040
O           1.18055414109518   -0.34135460793357    1.83760498519958
H           1.48005888680728    0.20320892503253    1.08443793487116
O          -1.97515796943173   -0.42936575872307    0.10325480172526
H          -1.72252707787873    0.30039499306015    0.70317004388111
H          -1.48929780977584   -1.21544175869676    0.40734299568101
O          -0.04251135471662   -2.34650150441496    0.70445305524677
H           0.48354798140940   -1.63178068894491    1.16682460303788
H          -0.08744744755437   -3.08694890138429    1.31030644646141
O           0.88707969708796   -2.23571994362573   -1.84502679308789
H           1.83891722008336   -2.19592943623531   -1.73570453966760
H           0.51592135978234   -2.41432860465466   -0.95648225235064
N          -0.35228713394695    0.15004311640271   -1.87696685815073
H           0.11178180561634   -0.75288481408088   -2.12317120995211
H           0.30443971034046    0.74305967928249   -1.29833633547884
H          -0.67893956948489    0.68064830514567   -2.67725711808131
H          -1.16313190580420   -0.05332072155869   -1.20914640204352
