    23
        -45.36979147  Gyration_radius:  2.38413371225 Dipole_moment: 4.127
 S          -1.13286535543446    1.60115654644220   -0.32692728403865
O          -1.66177643417030    1.58185887856687   -1.66377172828490
O          -1.46930121025471    0.39702235227402    0.43621470301894
O           0.29847246033179    1.86951045017445   -0.23278764397871
O          -1.84521253527912    2.81239163560703    0.41849593381092
H          -2.63753445708199    2.93737967208968   -0.09472323387215
H           0.74526774738899    0.82825683071557   -1.57153545587904
O           0.92106006040095   -2.12705628054685   -0.97207797515118
H           1.64691964999533   -2.57937590587123   -1.40362955586592
O          -1.65448949404636   -2.43701424478200    0.47581042334235
H          -1.92946493300001   -1.51553131836954    0.39202389899490
H          -1.04932884540721   -2.59833471196910   -0.25461078786880
O           2.00340957596626    1.29661480895356    1.68351949869566
H           1.35307166270331    1.65243024600469    1.03331867538489
H           2.86481045141397    1.58173572165945    1.37487123914927
O           0.54489144415596    0.14570391221627   -2.23615368970540
H           0.74384941015804   -1.31230318292327   -1.51141158223261
H          -0.35431779064819    0.38413249684667   -2.50292478251321
N           0.54685298478286   -0.91960260209828    1.41586080900293
H          -0.30700706659326   -0.36039648512670    1.08780155490142
H           0.26747952310729   -1.52149380766296    2.18445294560282
H           0.82864556910651   -1.49529874830735    0.59213464592418
H           1.27656757273422   -0.22178626309828    1.67604938123956
