    23
        -45.37767333  Gyration_radius:  2.37204837983 Dipole_moment: 3.252
 S           1.02056749987235   -0.97926922898693   -0.46302050546785
O          -0.16941864428143   -1.79084047529586   -0.69206082474021
O           2.24123307477222   -1.57416588261738   -0.93597358164274
O           0.78437623888748    0.35916411467069   -1.31753303478961
O           1.06736524639777   -0.49613585619145    0.91126731468055
H           0.73282992113218    1.06528799880895    1.33546021848861
H           1.01444175309259    0.05732532803800   -2.22192818554802
O           0.41043944957493    1.94864603205851    1.63395852798290
H           1.16583315257035    2.53557259429486    1.58395540718931
O          -0.78092191316913   -0.46260679338765    2.86304287518007
H           0.00781421683208   -0.69793932373973    2.33684104036206
H          -0.65261915231448    0.46537438805347    3.08665638473672
O          -1.38546439836605    1.81710425765549   -0.37207900052576
H          -0.87151195290706    2.09968968638411    0.41165670499974
H          -0.71080702821686    1.47873969502907   -0.98001275186204
O           1.73821054841172   -0.92046513818850   -3.39554518700750
H           2.02707221002239   -1.42104647300179   -2.60027007880074
H           2.53991857817163   -0.62535362367903   -3.83346154285691
N          -2.07328551380895   -0.57616719426248    0.53349986292114
H          -1.99415714696225    0.40993872393358    0.15669476240420
H          -1.76247231834327   -0.57359547568253    1.53918818764732
H          -3.00603979978006   -0.95739752739837    0.42254998778481
H          -1.34340401160130   -1.16185980648462   -0.00288658112192
