    23
        -45.37886628  Gyration_radius:  2.31195377728 Dipole_moment: 5.424
 S           0.19443407273907   -1.01119120715041    0.66551709025258
O           1.52274474422649   -0.42617925784048    0.78551913799860
O          -0.60036414068668   -0.85868069731270    1.87484666203491
O          -0.52190970606551   -0.41878833853666   -0.47783235898422
O           0.34678887089550   -2.52556884520961    0.38128224652028
H           1.15170827333755   -2.58056710203363   -0.21334052406766
H          -1.98736495991008    0.36125981564518   -0.44317174112114
O          -2.80360065167567    0.86775347672182   -0.21746711951826
H          -3.47706374821960    0.20788034537966   -0.04350868967322
O           0.97206071020525    2.07630000764187    0.30993424050461
H           1.33197177256338    1.17910012250789    0.51756152420998
H           0.79361394423871    2.05840487169574   -0.63389244724513
O           2.44286572243739   -2.14830587120867   -1.06754285078678
H           2.65888293473511   -1.49010873362166   -0.39057745839396
H           2.08300063193256   -1.62340481878426   -1.81206470416187
O           0.98581092878339   -0.48884072415687   -2.63068806725605
H           0.44800705464486   -0.84822073782151   -3.33821414439378
H           0.39253355359619   -0.40767148368700   -1.84990381013845
N          -1.20147093368892    1.64955863124521    1.74594693112369
H          -2.00263140713167    1.58837178554536    1.07267632964440
H          -0.96988351522595    0.62973534397424    1.98008354427028
H          -0.35179002886927    2.00399870000658    1.21635816107209
H          -1.40834412286574    2.20516472700324    2.56847804810497
