    23
        -45.36873357  Gyration_radius:  2.38820186455 Dipole_moment: 8.173
 S          -0.42141489423448    2.31860473407960    0.41415982293575
O           0.41445417133683    1.46864989609674    1.25961740676508
O          -0.73528047305806    3.59488963048980    0.96653387743735
O           0.45977872466619    2.60172563032191   -0.90710023839442
O          -1.56075244953141    1.55703136896182   -0.10737110553375
H          -0.90105091408303    0.61992539678574   -1.17227682676497
H           0.87775322001187    3.42885462151205   -0.69226752894215
O          -0.50310346932294   -0.05000483483345   -1.79869063114239
H          -0.66429422888926    0.29600990934066   -2.67717527346225
O           1.92403999135873    0.02316579097252   -0.34234880192496
H           1.31156178814244    0.06756460653053   -1.09022178940785
H           1.50490798998502    0.59551421896809    0.33644652465806
O          -1.49340873890975   -0.24798148607999    1.80107305381623
H          -0.65541109123588    0.22829530258289    1.96955804134726
H          -1.93116624090682    0.37254120037750    1.18730645336316
O           1.79688164156507   -2.45499271459740    0.45830640931774
H           1.97236325700404   -1.49485516126744    0.24589789536288
H           2.43202326948137   -2.96064104425906   -0.04979238600761
N          -0.77726840319175   -2.02173662951193    0.02981453039820
H           0.20700070795799   -2.34564574132270    0.23135344194192
H          -0.75052758269004   -1.42347561640641   -0.81953461572686
H          -1.41560726776883   -2.80130797910061   -0.08123624175306
H          -1.09147901768504   -1.37213109962381    0.83794796169159
