    23
        -45.36373227  Gyration_radius:  2.33392036457 Dipole_moment: 1.613
 S          -1.73786609908976   -0.76466327628950    0.01530763242238
O          -1.24219946689247   -1.77691298094727    0.93768919543587
O          -1.55904762657689    0.58459413496342    0.52867794776229
O          -1.20560015416915   -0.93071633771230   -1.32541213312445
O          -3.30871382446842   -0.96903939413201   -0.08455044671629
H          -3.40724860529229   -1.86379371947041   -0.39608926072471
H           0.37561283654422   -1.64391686067316   -1.09526915023246
O           0.13958097044984    0.05475402869508    2.40407123711209
H          -0.19998084479602   -0.83730598660011    2.55153908638201
O           2.13008344506426   -0.27182423961972    0.88413873405972
H           2.21116812260538    0.59405264107417    0.29972866380060
H           1.37613109801530   -0.10086782171185    1.58419725088647
O           0.96267747695057   -2.06892328576031   -0.43612914825394
H           0.30457798898837   -2.32691633541759    0.23970145496050
H           1.75685720137220   -1.03798414260482    0.27713613580398
O           2.17701471872997    1.83533825227540   -0.48233628656187
H           2.14318380543417    2.60312933512695    0.09122391406031
H           1.29150635113875    1.81714149288179   -0.99585897807098
N          -0.15160604487011    1.72332137638983   -1.61679132948947
H          -0.75808841694369    1.49045958104955   -0.82771676345973
H          -0.52778618565228    0.43336684326085    1.77842085252943
H          -0.22455338104521    0.92886060523269   -2.24313396369360
H          -0.54570336537800    2.52784609008080   -2.08854465490803
