    23
        -45.35631851  Gyration_radius:  2.31243305942 Dipole_moment: 4.984
 S           0.91267828518388   -1.50869220882649   -0.96932469575327
O           1.61604688046695   -1.14468530084132    0.23797419818656
O           1.34463055255604   -2.67247384862425   -1.64210313867345
O          -0.60479792363449   -1.65410965887332   -0.60232689550697
O           0.90723694013414   -0.29548523744287   -1.92281173206191
H           0.81485289321392    0.55617703742850   -1.35582186916230
H          -1.09436100737072   -0.82786969869508   -0.84365981149554
O           0.03023763396006    0.46596999736374    1.73885226866462
H           0.60684121855733   -0.26578621517340    1.46441211429572
O           0.58179928693529    1.74046420511081   -0.44048224938871
H           1.52963044372861    1.93857570649268   -0.31921008692598
H           0.31631170066793    1.36520675180274    0.45578743625014
O           3.10521415213653    1.14338681580264    0.23134413159768
H           3.49480447553928    1.27461379186051    1.09750085021504
H           2.73472638258498    0.24231780658300    0.23619405359168
O          -1.78047051267335    0.59150841323020   -1.36475724862623
H          -1.18381192337679    1.28571866132549   -1.04482951223473
H          -1.69795782134500    0.58549129575080   -2.32180649089754
N          -2.46453542629770   -0.60421055690923    1.48778047854731
H          -2.24410702877560   -1.53605280062342    1.15699925754311
H          -3.13041610694957   -0.68192705794931    2.24561530859464
H          -0.88769748332010    0.10819194789144    1.74995483206305
H          -2.90685562205118   -0.10632984644715    0.72471880126949
