    23
        -45.37493179  Gyration_radius:  2.39733387427 Dipole_moment: 1.888
 S           0.80574436166421    1.35141461353262    1.02706873569971
O           1.21824669757323    1.14892710278110   -0.35593999009018
O          -0.58542917649273    1.71331202441898    1.15109195089572
O           1.17347935555386    0.20720074126422    1.85593058984639
O           1.64379591324687    2.58721910880235    1.56006435825546
H           2.54426398909604    2.36615760155296    1.33945564598234
H          -0.35683380047511   -0.62592116415619    1.90368848967731
O          -1.19545738133261   -0.98061986291929    1.54892479977163
H          -1.78832231189013   -0.22342804074867    1.53084101631695
O          -1.41411701601582   -0.56439844606694   -2.90793044850800
H          -1.78161594436457    0.09026196604339   -2.28094605208503
H          -0.96515334283771   -0.05594311225670   -3.58562141445782
O           2.13078717049059   -2.07165332661076    0.75650801575813
H           1.89170439969367   -1.22138592513134    1.17741139539952
H           2.24241900791084   -2.69543185759103    1.47527396984367
O          -2.04982082421370    1.27735866070178   -1.01502188430084
H          -1.46748591124347    1.45231355363900   -0.24415627880110
H          -2.60096961837207    2.05587743881683   -1.10387828236155
N           0.10629329432442   -1.18971364916987   -0.79061383608635
H          -0.56117209067435   -1.23334470764770    0.01915306414824
H          -0.40581308857167   -1.24787182789689   -1.69428944942221
H           0.57910367779518   -0.24505682221457   -0.73170798189690
H           0.83635265911584   -1.89527405917964   -0.63530640358186
