    23
        -45.35778324  Gyration_radius:  2.40766045803 Dipole_moment: 2.455
 S          -0.46463104090769    0.00834112629003   -1.69624367556814
O          -1.16429714868400    0.66409966936040   -0.61475798370934
O           0.19842808754053    0.86378234771856   -2.61843399278183
O           0.55458511868521   -0.97938175614996   -1.06821631986505
O          -1.43263758320633   -0.93374772959381   -2.42978903876457
H          -1.84427308562028   -1.54651170261210   -1.75015708524909
H           1.47640731310662   -0.45777505653326   -1.05595152541234
O           2.51747878606012    0.52858554771028   -1.08368054281896
H           2.30336802168785    0.93932032221614   -1.92968015620443
O          -0.87209199831220   -1.07239018965045    1.32319158745241
H          -0.00554276780192   -1.37793750969975    1.03133840649011
H          -1.07981201183215   -0.32074886279159    0.72163095403260
O           0.25629413527044    0.76527521131511    3.10795275654036
H          -0.32923054666703    1.07543270186398    3.80006256871083
H          -0.21872564067450    0.05692202800976    2.64214541148835
O          -2.22591512514182   -2.50756808358601   -0.53133144624153
H          -1.75950334034937   -3.34242145164462   -0.61571159932060
H          -1.88942831535984   -2.07188226185224    0.28201478427333
N           1.16223775315919    2.01242651741422    0.57232987345459
H           1.32440278947309    3.01049168114499    0.61573263795246
H           1.10097006390361    1.66794090486393    1.52875391829419
H           0.25223936011949    1.86030824615186    0.14399229847226
H           2.13967717542066    1.15743832027648   -0.37519183111122
