    23
        -45.36968553  Gyration_radius:  2.29053383008 Dipole_moment: 7.922
 S           1.96578734547248   -0.14649717243700   -0.82398998873740
O           0.91443194229303   -1.10444329763608   -1.25360404703179
O           3.11616154001733   -0.15620059491318   -1.65335123158498
O           1.27571340851577    1.28317164015076   -0.98548237992789
O           2.19940831565237   -0.29892393312074    0.61211225471141
H           1.20396617607626   -0.46658291381260    1.72091976356740
H           0.68926388669655    1.40530634870143   -0.21790393413897
O           0.47055437510460   -0.50601255881535    2.42495114634444
H           0.92145013163256   -0.64140911514814    3.25917744670988
O          -0.36062045030433    1.71030276652447    1.14751262056961
H          -0.12840542999676    0.96929829649586    1.74693829667883
H          -0.03587194240253    2.51453647273770    1.55595202702229
O          -2.33636609299217    0.46274012638875   -0.43177209294646
H          -1.88270074293238    1.15595402894577    0.06564030500955
H          -1.93833026726153    0.47863900780922   -1.33605478579709
O          -0.83415461198377    0.35200040682409   -2.62773435114016
H          -0.16231398864949   -0.26871241254470   -2.27351653608551
H          -0.34696043435818    1.15637805833323   -2.82123500858684
N          -0.96526521465906   -1.60876674185153    0.39846523848993
H          -0.60261380735797   -1.41775315582767    1.34430454231693
H          -1.66440530923085   -0.84809630111005    0.11729780357651
H          -0.13230429831861   -1.48853423546785   -0.29427415685028
H          -1.36642450100711   -2.53639473021438    0.32564707783712
