    23
        -45.35790222  Gyration_radius:  2.33303549596 Dipole_moment: 5.657
 S           0.65894269624327    0.15938547222004   -1.81074908680144
O          -0.09208261895200   -1.01375838691941   -1.43127830705110
O           0.67877028656549    0.52200309845852   -3.17714234016226
O           0.07274485733925    1.36507298566708   -0.98667667907914
O           2.08845220841720    0.05153887191500   -1.25570994886943
H           2.04179840125257   -0.65075904464617   -0.49529575948225
H          -0.57566426437250    1.05877581539964   -0.28526767566559
O          -1.63958152891204    0.69587920218544    0.83832942433256
H          -2.28649641701974    1.40010645753374    0.91218968352072
O           2.07965545751273    2.08675826035089    0.83714667184735
H           2.88807037810345    1.71849856831599    0.47226617054654
H           1.44585596852606    2.10739011703755    0.10648376288502
O           0.74356204097914    0.16377960415608    2.24414171311551
H          -0.16476015021268    0.35146620597129    1.97211457337644
H           1.27354660553256    0.93188250088819    1.95560152768793
O           1.63552603642751   -1.62418277438067    0.54311656642740
H           1.34051558161069   -1.05835686706467    1.30793315993520
H           0.83497034303861   -1.88272672739633    0.06572222166730
N          -2.70762791693456   -1.36047893896723   -0.38974837112934
H          -2.85349077070694   -2.22842072369099    0.11011360799065
H          -3.48780813905911   -1.22895776171291   -1.02097645604752
H          -2.11174333184012   -0.10447997517994    0.44117171048310
H          -1.86315572348359   -1.46041593999759   -0.95348614950051
