    23
        -45.37749245  Gyration_radius:  2.24540807774 Dipole_moment: 7.291
 S           0.90173948958479    0.64297292605855   -1.05904089367399
O          -0.21445686903510   -0.20358973130021   -1.53517589361110
O           0.71125136976450    2.02134939464251   -1.43373906598885
O           1.02028361821505    0.48098510386118    0.39897226550846
O           2.19714637095647    0.12196373872649   -1.71176885421226
H           2.48080227308678   -0.66827664110471   -1.16520157053709
H          -0.04103113319037   -0.33005381523690    1.28443837956755
O          -0.76068991093668   -0.81471844111345    1.77323939607657
H          -0.50774343100563   -0.81370582557013    2.69726077145717
O           2.57221626728968   -1.72562675293426    0.03717969969275
H           1.77797094057649   -2.28689310838290   -0.11332962307737
H           2.27901188017333   -1.02778225833891    0.63893320498722
O          -0.90415828516327    2.86380346566753    0.40115695544254
H          -0.33968647384619    2.81510091471469    1.17632125527818
H          -0.28856666411887    2.71184967520331   -0.36287048420424
O           0.06514334813837   -2.58499158742836   -0.33186218987736
H          -0.36705295809643   -2.33392136924319    0.49395172559099
H          -0.08103500477152   -1.83234127044414   -0.93661412756533
N          -2.14625272310475    0.59148039319097   -0.04706835778548
H          -1.81103346372466    1.57678077807724    0.18080992624345
H          -1.99464913902503   -0.00757898111545    0.78300790714639
H          -3.10415836131455    0.56859886591746   -0.37907450301299
H          -1.44505113044453    0.23459451615610   -0.78952591345888
