    23
        -45.37583658  Gyration_radius:  2.28641684283 Dipole_moment: 1.585
 S           1.35669540371677   -0.92024434676423    0.04100057194881
O           0.41657977569650   -1.88307663767993    0.58008473562661
O           1.05284062579957   -0.55489259683091   -1.33769877716801
O           1.49733273666140    0.23622349600183    0.90453392781239
O           2.77108632737953   -1.62990038810749   -0.02015221479308
H           2.89702899443953   -1.94358891857057    0.86976055002626
H           0.38499336018111    1.47900993027603    0.67406352571055
O          -0.28765594596237    2.08619397059805    0.29309491551555
H           0.18175921584935    2.47345268862895   -0.46795056364213
O           1.34284363192420    2.07283516823996   -1.87179169214469
H           2.26266335381560    2.33079465865022   -1.79849867204911
H           1.32674661732530    1.10108331313970   -1.76584974378361
O          -2.31504292144987   -1.74797814126058    0.51470238064898
H          -1.44499560945783   -2.18084525438673    0.47335304561889
H          -2.29578632936410   -1.29769124252303    1.37544027445758
O          -0.97865814127358   -0.30623447927183    2.38256189280516
H          -0.65003413768993    0.59048456201389    2.47169388559788
H          -0.29293384853826   -0.79723693487447    1.90262882411655
N          -1.47432698659152    0.18200342407050   -1.06227411662177
H          -1.95919850005238   -0.56148683036477   -0.46732528208421
H          -1.20042596875634    1.02692905076754   -0.46453398454660
H          -0.55354219796300   -0.21472461757407   -1.36753049427068
H          -2.03796944483190    0.45889013552693   -1.85931299898323
