    23
        -45.37142596  Gyration_radius:  2.30649478692 Dipole_moment: 4.937
 S          -0.67930778699250    0.08125905287359    1.46430406711609
O          -1.79518356379574   -0.83795510594847    1.52894083362065
O           0.60886547912230   -0.59716845888987    1.48622260181094
O          -0.77565756832307    1.02972912437532    0.36768119125539
O          -0.75443758581622    0.94894114616255    2.80229213322631
H          -1.26465621911620    0.39232065979612    3.38173623417156
H           0.55925325197984    1.59978403838386   -0.61279313912396
O           1.63735906046838   -0.92316267687237   -0.90463215464818
H           1.35007354198166   -0.95490981799560    0.03742259012025
O          -2.39160972804587   -0.52766167147863   -0.98816355736344
H          -2.41546279799040   -0.89100605281652   -0.07660413921723
H          -2.00535815503574    0.34934295692672   -0.81620579760309
O           1.89055730825478    1.76092818953655    1.74185198266639
H           1.56350677056398    0.84517011748305    1.73493282238262
H           1.21482997155970    2.26391394946750    2.20055608970762
O           1.46381969629717    1.67467878399371   -0.97231495014485
H           1.98211099516218    1.92778723927301   -0.19027811380211
H           1.72962752611342    0.05892855938938   -1.07168724238445
N          -0.39385495112039   -1.65681664185585   -2.24632203768764
H          -0.46851971137044   -2.66878455981615   -2.25709059536431
H          -0.33140952307867   -1.30138320935888   -3.19518029875502
H          -1.25255646234903   -1.22935490121341   -1.75317373695128
H           0.52801041165236   -1.34458071133993   -1.66149477282519
