    23
        -45.34486925  Gyration_radius:  2.4257938222 Dipole_moment: 4.075
 S          -1.05138232509385   -0.53666754298937   -1.46516679295819
O          -1.10023724999350   -1.57432272987629   -0.47191951711313
O          -1.79315484484799    0.64924521806724   -1.23360964476480
O           0.41046565121477   -0.20583569033586   -1.76939881426452
O          -1.57065299600271   -1.17103347114828   -2.81177128400753
H          -1.42223937602660   -2.11357835049648   -2.76824455334914
H           1.00936792380519   -0.94534090006424   -1.29068345361929
O           2.30598715159827   -0.39471540256523    1.48755934886013
H           2.59783912018341   -0.70141763497528    2.34673227808951
O           1.56116963535298   -1.96162826933492   -0.46054040179917
H           0.70828756885798   -2.26889048817187   -0.11843923849754
H           1.98073518874247   -1.43582882527145    0.27827197026959
O          -2.84708086853248    1.71480750285203    1.13842235808407
H          -3.46166776487801    2.41665800014704    0.91806192250009
H          -2.52694724002859    1.36707625647824    0.29365495151481
O           1.74811036402533    1.93272239263161   -0.33901272151321
H           1.38501046585931    1.42693216663744   -1.07213498302284
H           2.30758570164204    1.32871344508209    0.15979104017038
N          -0.15610779937327    0.50903473059778    1.48316595248135
H           1.37806025626214   -0.01324791493733    1.60849121873597
H          -0.74332100208483    0.82350187718597    2.24735891117881
H          -0.01664745605884    1.31759295111384    0.88198389092673
H          -0.70318009461324   -0.16377732092040    0.95742755225078
