    23
        -45.36731867  Gyration_radius:  2.5506464513 Dipole_moment: 3.826
 S           0.76611979799277    0.89302000462390    2.26114048682230
O          -0.65425851164406    1.16991268860749    2.20513775934366
O           1.55057036548514    1.76973740486318    3.06999302399089
O           0.92285713751995   -0.56899943197127    2.93846596198345
O           1.28517854197070    0.69485100244524    0.89077111894411
H           0.58864095387049   -0.75412602334169    0.63190520481521
H           1.34550285858307   -0.32329219393090    3.75439732618827
O           0.06345356649174   -1.58055789972256    0.50129979095628
H           0.22268853749246   -2.09139298691985    1.29795328440549
O           0.42783597601427    0.34151371197883   -3.15793201266069
H           0.30157346649317   -0.59674087013763   -2.88026556042171
H           1.36475831901145    0.43573806399395   -3.33780462925172
O          -2.16152267416537    0.04010606954482    0.37972497708093
H          -1.83261871890884    0.48426369261406    1.19425508520556
H          -1.64853942211563   -0.78403613924430    0.35600658459220
O           0.11171835432543   -2.10696151891794   -2.15638568901838
H           0.18368201593858   -1.98453795514984   -1.18898861256890
H          -0.73208092296282   -2.53410331525327   -2.31269918739532
N          -0.42524352958487    1.52409492404933   -0.91059813301423
H          -0.12897194206830    1.15552188786727   -1.84939521987375
H          -0.61923339289846    2.51867955613123   -0.93945333025227
H          -1.27064905573665    0.98299999264795   -0.54296073605276
H           0.33853825891588    1.31430934523138   -0.20456749380017
