    23
        -45.35125829  Gyration_radius:  2.61966659902 Dipole_moment: 7.478
 S           2.98310426283669    0.08593100975876    0.40183222244887
O           2.48734312827083   -0.92544383419320   -0.48849578971916
O           4.18572578945819   -0.16440024759538    1.09547925896376
O           3.11805174472534    1.42861304325327   -0.41045619150441
O           1.84474602499743    0.43332878399840    1.41299944559912
H           1.13077652719757    0.79223164087185    0.80011616256465
H           2.25698725609063    1.61346622032262   -0.80500912922175
O          -0.09719633076588   -1.31652236553224   -1.08999033607774
H           0.86606293071693   -1.44790446376418   -1.07705676099590
O          -2.58045536561885   -0.38213623333539   -1.72813766339413
H          -3.17706051074608   -1.12984235872033   -1.66926154183180
H          -1.68067083912081   -0.75389278067631   -1.72876425727710
O           0.33642357330116    1.24149347700435   -0.47836631771995
H          -0.55545245573299    1.49674851470036   -0.15646251910502
H           0.18599793029962    0.35617228984354   -0.89238660771892
O          -2.24791976430341    1.40164360384249    0.26051740963457
H          -2.76332586707695    2.19114670018516    0.08944089084050
H          -2.47458653401683    0.76359981526824   -0.45346491773922
N          -0.82087233514315   -1.14885319019316    1.51139324179218
H           0.06030452395001   -0.90160285948470    1.94878142621198
H          -1.26053972832784   -1.86306539600263    2.07772235376285
H          -1.41338646633367   -0.32537393595992    1.53090723164897
H          -0.38405751450785   -1.44533742368071   -0.15133762105846
