    23
        -45.34068035  Gyration_radius:  2.54312996364 Dipole_moment: 3.172
 S          -0.30423762362069    0.64728223941211   -2.66177423267480
O          -1.60407222786235    1.11182777086367   -2.30496486146439
O           0.00933501993010    0.35836199255327   -4.01399201780549
O           0.73755545584837    1.76183067347347   -2.18071115196999
O           0.07150974218580   -0.53909667583132   -1.75447733231718
H          -0.64745907824152   -0.54266236441938   -1.00359713042529
H           1.46762011198089    1.71655871609433   -2.79464920647388
O          -0.92714966399075    0.78361338659221    2.04272790963227
H          -1.47800309210689    0.72396484130626    2.82414369223785
O           0.05676972193613   -2.71939813928464    0.21757456169535
H          -0.85121369632009   -2.40268662477484    0.24778909509775
H           0.41519519222424   -2.41285915620601   -0.62006923243200
O           1.47416648057201    1.69452475738253    0.61713000350859
H           1.24569685937410    1.84279944604358   -0.30574698405090
H           0.65202890574155    1.77287275950875    1.11330659625894
O          -1.81011790293092   -0.41175870333055   -0.11265081982980
H          -1.52171974607136    0.07647406226814    0.70942111772218
H          -2.23597558486310    0.23888019394695   -0.69046404025370
N           1.12654109615081   -0.82522650568352    2.18408198477520
H           1.58500046379039   -1.15142358422597    3.02428150239691
H          -0.14126060933154    0.15562827437860    2.18917985567507
H           1.78074606838797   -0.24597002377326    1.66692286674017
H           0.89904410721782   -1.63353733627579    1.60653782395087
