    23
        -45.36426047  Gyration_radius:  2.34881036851 Dipole_moment: 6.160
 S           1.21631991584717    1.02631462383473   -1.42550798350812
O           1.08828121749334    2.10298837738665   -2.35561222375269
O           2.52506944119728    0.42590357022296   -1.30525037613227
O           0.94286264500290    1.71213531227546    0.03478547196594
O           0.15123308886798    0.02516722168798   -1.50928263739004
H          -1.34195520589733    0.49401010141598   -1.14953477531592
H           1.46926580966861    2.49288103014298   -0.09430866955809
O          -2.27627182257761    0.67871391133457   -0.86879868897873
H          -2.70432850162050    1.03992891276016   -1.64576071269494
O           2.56437357299646   -0.93890111297198    0.90705840473032
H           3.41953540117582   -1.37201321346303    0.92817067534941
H           2.57626292798702   -0.37326472413967    0.09327667679722
O           0.43617254188563   -2.14439253657324   -0.08824036045648
H           1.23326782801259   -1.86958851395284    0.42304265627282
H           0.39238651980386   -1.46082823345430   -0.79776742070112
O          -1.20680317998963    1.26972006669027    1.67376746145339
H          -1.79644385061487    1.50413684374990    0.94231294211147
H          -0.31686929815669    1.43617190836485    1.32265810928806
N          -1.69556108457004   -1.23491434598739    1.00638205358481
H          -1.42711671221976   -0.34356491810621    1.50956688620599
H          -2.23484658236615   -0.90208424616929    0.19541937664832
H          -0.77762482985455   -1.70706429143505    0.61317257193473
H          -2.23720987206489   -1.86145571361349    1.59045057214745
