    23
        -45.35443507  Gyration_radius:  2.40367123939 Dipole_moment: 5.063
 S          -1.49875108942887   -0.15733654800245   -1.83803691012102
O          -0.49294748685397    0.78039415949093   -2.25209156654251
O          -2.26170434380535   -0.80971938132256   -2.83466847196953
O          -0.77994055087989   -1.22376945617840   -0.92808774999192
O          -2.46602188440693    0.51787409973078   -0.83170855054139
H          -1.95765407917454    0.87212042620849   -0.04929994545687
H           0.19632841920378   -0.97882848890842   -0.89413214316050
O           1.70520867543634   -0.54041902551116   -0.82993117990906
H           1.95743511755148   -0.49904585097348   -1.75480846334141
O          -1.25356917669651    1.24548978342837    1.35478416028446
H          -1.04135103475059    0.31369827228424    1.65459351490666
H          -1.94443661789940    1.55904525301591    1.94186888639376
O           1.85390225851266   -1.77744159827385    1.64181770557068
H           2.10873344448297   -2.69506112435173    1.53302435881843
H           1.96670833350848   -1.34991084436453    0.77821327050884
O          -0.80270338722617   -1.26341701628408    1.88207525191707
H          -1.03005397014751   -1.58872021903404    1.00106733201106
H           0.15509621925705   -1.43573554439476    1.98319557875780
N           1.14694937724179    1.92436915774931   -0.25513967357496
H           0.56628558932377    1.99586670451837   -1.08809588409060
H           0.52574287356763    1.95887053466391    0.54561969592393
H           1.57457165194415    0.43367230175974   -0.54371529253784
H           1.77217166125054    2.71800442476734   -0.21654390386989
