    23
        -45.35906240  Gyration_radius:  2.41645385278 Dipole_moment: 8.328
 S          -1.58460933357934    0.13954361488749   -1.80987284822417
O          -1.62260726426450   -0.33385140783873   -0.43738427936963
O          -2.80933746978769    0.57610913301236   -2.36123129022860
O          -0.56741831674687    1.31918095865118   -1.85578325645794
O          -0.94974116908929   -0.95182401481629   -2.68103796840680
H          -0.16277796522899   -1.37694228562779   -2.18318870980736
H           0.27304073917992    1.06519000602220   -1.39057168757879
O           1.68555753950414    0.73198338686526   -0.66948586952332
H           2.36631479608627    1.28023152285097   -1.06351008493048
O           1.00153800575086   -1.84402257947251   -1.32180288447665
H           0.59390687995848   -2.21576714444395   -0.50998702756304
H           1.43318857276925   -1.01760968675903   -1.05100578043058
O          -0.42999008925435   -2.34759559544646    0.90028026654589
H          -1.07370652144983   -1.78922951093505    0.43109785024812
H          -0.26154613003213   -1.88987434034859    1.72803190973570
O          -1.24603682368454    0.42966882944592    2.10317906909713
H          -2.09305195802932    0.70462881799000    2.45688931358428
H          -1.41064381508404    0.20492223021263    1.16656640560431
N           1.39174897185183    1.50792427189944    1.80632021996037
H           1.39337336492378    2.51127548492412    1.93975738447175
H           2.03043979663866    1.10138863379371    2.47809841612652
H           0.45337432791590    1.16783539624382    2.02387667594851
H           1.58898387163591    1.02683426892112    0.30076419565934
