    23
        -45.35433239  Gyration_radius:  2.38145869561 Dipole_moment: 5.376
 S           1.42365656892101    1.54500355495072   -0.15030558679679
O           0.38287438690953    2.01279507299915    0.73546933056223
O           2.22170359790613    2.51396162155118   -0.79854366615161
O           2.32026638609560    0.55034303177708    0.65478305553522
O           0.77531673382847    0.62853161329034   -1.21263737582489
H           0.27599886666102   -0.08591179920800   -0.69519749398273
H           1.77156862984721    0.27631025774839    1.46746592407408
O          -0.32766044235427   -1.18825734767834    0.20827701699545
H           0.24934743570527   -1.92139145912096   -0.05284000267479
O           0.61468511039950   -0.01365134684018    2.45614504042395
H           0.10122954617796   -0.61167480621632    1.88296431343842
H           0.23243934372551    0.86500470751998    2.31121311006593
O          -1.92985249272194    1.86488955733937   -0.70600554279322
H          -1.18501332001075    1.96044658143100   -0.08755407732757
H          -1.67978478980833    2.36170718374071   -1.48689367347406
O           2.16741895470767   -2.20517045948954   -0.17595090926743
H           2.80891016235416   -2.72619098391057    0.30991942251007
H           2.42955402322313   -1.28011304271997   -0.07186874642864
N          -2.64110738172712   -0.94447996441682   -0.97488397466799
H          -3.49775862611530   -1.20807074573968   -0.50504424181298
H          -2.72816265528107   -1.19658373773316   -1.95121237382222
H          -2.55725849839346    0.07312280837699   -0.92108974775062
H          -1.22837153005698   -1.27062026765049   -0.23620980083234
