    23
        -45.37632313  Gyration_radius:  2.30181937707 Dipole_moment: 4.692
 S           0.59165962655252    1.32166135896639    0.11638679088788
O           0.69910734868437    0.56173361886037   -1.13404147082418
O          -0.63681651430368    2.06086502012455    0.19751944823980
O           0.78590059905771    0.40605518233119    1.25681938891322
O           1.77450595413954    2.34455230943795    0.14512298579034
H           2.56953693815890    1.80335988516615    0.31083339979782
H          -0.87748933271309    0.12155211858769    1.82600100170523
O          -1.83039998011287    0.22080804290935    1.63763625630999
H          -1.82986155714440    1.07967274498910    1.17467561242381
O           0.64185892205328   -1.92514663202682   -0.32717880686840
H           0.98385121491437   -1.80551216963395    0.56372859511187
H           0.78975684848454   -1.04449744092684   -0.75158412380251
O          -1.57576387402907    0.19382157828206   -2.39009986349821
H          -0.75154318177729    0.50564906711909   -1.94478214949820
H          -1.31478576457918   -0.03681354669107   -3.28369776683802
O           3.38825475608767    0.45956640499107    1.12336486120846
H           3.77975606991067    0.70751318806922    1.96349312631634
H           2.44488261478370    0.25580478178712    1.30338031450246
N          -1.95666835198310   -1.47383204583687   -0.35962364956592
H          -2.65739773817041   -2.20611752520187   -0.36051903050043
H          -2.00430401821143   -0.87490569308170   -1.22363201229822
H          -2.04926068202035   -0.82288919841288    0.48705272195822
H          -0.96477990781273   -1.85290106979889   -0.33085562948743
