    23
        -45.37726328  Gyration_radius:  2.22133862976 Dipole_moment: 6.336
 S           0.01246398263089    1.05841446084538    1.17505858733978
O           0.19383740102757    1.29920881693514   -0.28566802170492
O           1.14225797415447    1.45645461354318    1.94752445898807
O          -1.21908719201669    1.90391743786864    1.61115078783196
O          -0.34428111312137   -0.35683983356516    1.35219076995780
H          -1.45144310190309   -1.02400743884772    0.44397828931248
H          -1.89050247473632    1.78825418535136    0.90187997222540
O          -2.05915465542947   -1.38926097642325   -0.26065466692713
H          -2.59540552990510   -2.05584963573477    0.17056625870290
O           1.81778141292865   -1.67406110849054    0.44541061830777
H           2.44437517778190   -0.92250671180770    0.34778990311358
H           1.12860079672794   -1.34530684487630    1.05487520340564
O           2.86931918058846    0.74697070066132   -0.01020408678569
H           2.01114909315062    1.13486121323061   -0.24459279677768
H           3.03743790440249    1.10211566433025    0.86937382100272
O          -2.47058935323173    1.33534100188536   -0.63449483297037
H          -2.59602368074313    0.37315354392655   -0.62206232310795
H          -1.54377293510505    1.48400788298748   -0.88006663549237
N           0.29907425135456   -0.99971278399957   -1.52424420827964
H           0.99242186332510   -1.46924397107116   -0.83284090387123
H           0.26139661682425    0.00058888079379   -1.15832961271617
H           0.60097148763248   -1.04577589778289   -2.49089937073824
H          -0.64082710631685   -1.40072316976385   -1.37574118085790
