    23
        -45.37623427  Gyration_radius:  2.39692498013 Dipole_moment: 1.834
 S          -0.88170486034630   -1.23473384368852   -1.12410645189726
O          -0.96953897616400    0.18236886762791   -1.45328152114643
O           0.43424060143495   -1.78536783356667   -1.33412127968259
O          -1.39258902517160   -1.48411128841565    0.22180687064544
O          -1.85729767064586   -1.98439481108088   -2.12277557319001
H          -2.68820128243183   -1.52878026711537   -2.01947809122562
H           0.05487950088702   -1.52841293993051    1.10013849149629
O           0.96572659098610   -1.33388785054662    1.40587454600897
H           1.52684405348868   -1.89549107547929    0.86379806156000
O          -1.80277268284617    0.59014307826963    1.86791549149016
H          -1.74153999206647   -0.11060162144390    1.18670420815629
H          -1.60937736543722    0.15125817346511    2.69898282818842
O           2.55153146978275   -0.17985669719294   -1.74326361061330
H           2.90930702893462   -0.32354119205995   -2.61972088250260
H           1.81383237608251   -0.81714058887132   -1.64733986474014
O          -0.34034714336813    2.82498397337328    1.52823476359797
H          -0.88526220612201    3.46194554270172    1.06370770293499
H          -0.93093950792691    2.06523911443611    1.73175837534471
N           0.98984179410393    1.01278226114491    0.08657030694788
H           1.84230572691363    1.07115100082195   -0.47942447003403
H           1.07915098311215    0.18782202621175    0.73197062540719
H           0.74044584567607    1.86906107104459    0.62658903098791
H           0.19146474110449    0.78956489033039   -0.57053954770490
