    23
        -45.37846390  Gyration_radius:  2.33142445425 Dipole_moment: 5.740
 S           0.63225461403477   -0.89661804642769   -0.95050897425833
O          -0.81810954977436   -1.09665262755417   -1.11303651318500
O           1.00921455025799    0.46828048465718   -1.22253848823848
O           1.03689735338238   -1.33581798258170    0.38671382437808
O           1.34782558050617   -1.81152686489829   -1.99240760401024
H           1.05011713969869   -2.70802944323889   -1.74228346083954
H           0.42428614885461   -0.42392574880738    1.54504331117098
O          -0.03421494878848    0.16770069224164    2.20179088466140
H           0.01924490388384   -0.28248702609786    3.04630563710166
O          -0.39399353015430    2.82349828596966   -0.88773080885714
H           0.28260077908492    2.93778705873392   -0.18309534571674
H           0.05178256987717    2.23383638870553   -1.51377968819259
O           1.49618108516004    2.17000732399514    0.87490685102716
H           1.10482981154012    1.65616238814003    1.59227139453684
H           1.63959794142178    1.53053170977264    0.15671998432529
O           0.04408301535617   -3.64877701482088   -0.59743915223517
H           0.47545818384835   -3.14610549515763    0.10979491188436
H          -0.73382879914121   -3.12533512657574   -0.82912210905340
N          -1.76102845962334    0.90531724087388    0.23690547844827
H          -1.30946738183018    1.77362467906550   -0.21942992858864
H          -1.49353743453419    0.07138083929349   -0.37887877932392
H          -1.30333191223484    0.73834726075983    1.15190560403891
H          -2.76686170082187    0.99880101394973    0.32789298093035
