    23
        -45.34937911  Gyration_radius:  2.40781594532 Dipole_moment: 4.198
 S           1.60525954288141   -1.41793993463196    0.94174732221297
O           0.57849426870067   -1.00028740309344    1.84597562457776
O           1.49883200533138   -2.68525335528077    0.31423831487049
O           1.81721127155166   -0.32746791675379   -0.12519357367793
O           2.96901172190944   -1.38403728920467    1.75184626357162
H           2.84378777088671   -0.79854499269611    2.49712274241224
H           1.41253959746828    0.55037454192639    0.27629126722801
O          -0.02373998873226    0.07690413682748   -2.32236392110710
H           0.88179265161879   -0.05495978075728   -2.02400583102150
O          -2.07702374278187    0.85543667032609    0.92498243363135
H          -2.97365602582006    1.05301486840235    1.19755317992386
H          -1.90483391842615    1.37096215505910    0.12361314807579
O           0.68711295130331    1.63746638684889    0.91935287460020
H           0.14454014902226    2.01820735115647    0.19050034504134
H           0.06689117923661    1.10901094394389    1.44615677799245
O          -0.86646347137001    2.25462445827000   -1.18197280674088
H          -0.76484092286131    2.99605162431448   -1.77958514828857
H          -0.57634582352565    1.43992321578885   -1.69082826424440
N          -1.13877763338193   -1.62086379483284   -0.59898495750717
H          -1.38476077904038   -1.04002793233828    0.19792457498346
H          -0.33795215658693   -2.17979539668778   -0.32408239712120
H          -1.91212088492588   -2.25209347917291   -0.76948534909970
H          -0.54495776266137   -0.60070508733500   -1.81080261046215
