    23
        -45.37650931  Gyration_radius:  2.29557465424 Dipole_moment: 5.247
 S          -0.12351250151617    1.78721458409678    0.80021116348808
O           0.22346394577554    1.47968891135579    2.16882182148050
O           0.93211245831763    1.47151168807996   -0.15732427923876
O          -1.38700848973846    1.20287828585482    0.38217388390401
O          -0.29849394354032    3.36423067647563    0.75492517092475
H          -0.33891799383829    3.54740031131460    1.68708945312766
H          -1.68395856747589   -0.32306356862924    0.39477949487760
O          -1.83862518584935   -1.31231216365714    0.36854158920350
H          -2.78901456758987   -1.42007231696371    0.30920912563839
O           0.34938654284647   -1.18312379074084    2.22860516268695
H           0.31550136942510   -0.21591239162502    2.37623268654357
H          -0.49810353453821   -1.41715386937397    1.83107042739613
O           0.08788653000206    0.80485295705276   -2.53332703016238
H           0.29836283677735    1.16359350288957   -1.63508070482814
H           0.75842738086411    1.16499296463505   -3.11657990008632
O           1.98932028127191   -0.95723345393665    0.17694307479925
H           1.83126655862469    0.00477120209642    0.08184910064167
H           1.56631610901491   -1.17811934765419    1.04302545744354
N           0.11247375112309   -1.62890874046917   -1.45796324115508
H           0.97576250359292   -1.46365720242241   -0.80626100826675
H           0.19829002928276   -2.47141306179622   -2.01400582805365
H          -0.72365915191675   -1.65693792097550   -0.83271925219007
H           0.04272364891383   -0.76322726565963   -2.05021636814362
