    23
        -45.37455609  Gyration_radius:  2.37025983262 Dipole_moment: 5.093
 S           0.48980924406999    0.53998816986682   -1.18292045552970
O           0.12216125159715    1.60360760471617   -0.26864481798109
O          -0.68001660140129   -0.25682206911027   -1.56840546671290
O           1.06485035081340    1.18402741549964   -2.48883856816570
O           1.55217422075446   -0.29674121105092   -0.64038807204194
H           1.96644785832830   -0.02648370836692    0.92209711360580
H           0.27429619672690    1.57753255356836   -2.90509253234178
O           2.15583770346382   -0.10618313035638    1.89116335916783
H           3.03443452111386   -0.48481932938868    1.95162675727573
O          -1.44403248120605    1.58050920359205   -3.27013554771773
H          -1.70966322558992    1.16312116703472   -4.09265185600215
H          -1.43017771801281    0.87125942707632   -2.59403084981937
O          -1.59033307144371    1.09140960706313    1.57705382011062
H          -1.00902691225449    1.30139272558919    0.79294772130598
H          -1.52690361605685    1.86465475334449    2.14133757353156
O          -0.10887258880381   -2.33633315424835   -0.11465609506188
H           0.81142343602199   -2.09054504917850   -0.29444768763493
H          -0.58227414203841   -1.71088328017229   -0.70825432837111
N          -0.28841124789239   -1.11043751266796    2.20207734632410
H          -0.58671735828037   -1.63556740516102    3.01616251235480
H          -0.89685563797306   -0.25350796710486    2.03674417614975
H           0.69918809416026   -0.76665295062745    2.28750213638372
H          -0.31733827609751   -1.70252585992042    1.30975374117146
