    23
        -45.35773856  Gyration_radius:  2.37914545547 Dipole_moment: 2.847
 S           1.09549707795146    1.36672900686265   -1.30140438840904
O           0.62737058450139    1.93628069575991   -0.05945815356006
O           2.49495307983915    1.21520525459982   -1.46008133549829
O           0.40220691379170    0.03920834476168   -1.54939571577545
O           0.54821490025642    2.30362479529467   -2.45165865941698
H          -0.28187538875604    2.67237105818032   -2.15410637579450
H          -0.69365522847617    0.10378248901456   -1.39299412447939
O          -0.29502972867692   -1.38713825045169    1.85360549459586
H          -0.16614249116390   -1.80491273102100    2.70596581781516
O          -1.54362723711875   -2.37431980768903   -0.38278928207517
H          -0.79912229870723   -2.56114399562507   -0.95867392817768
H          -1.16248394868470   -2.11810991284066    0.47804122827882
O          -1.54618810927932    1.02822493954294    1.28179010362168
H          -0.76211173581215    1.51913150869209    0.98142357842437
H          -1.20721839069733    0.19798136499863    1.65876271361894
O          -2.01314471715136    0.12283673429587   -1.10136085709598
H          -2.12875738817394   -0.84390517187272   -0.92850711346134
H          -2.02127784367433    0.54082817994144   -0.18828914875997
N           2.01354087639874   -0.38496617196863    0.98594820733637
H           2.18695044427796   -0.65821493466098    0.02507919692853
H           2.89803727715393   -0.44006253792788    1.47804609147531
H           1.75366614897604    0.59588503723874    0.93713588676500
H           0.60019719323740   -1.06931590512348    1.54292079366843
