    23
        -45.37623390  Gyration_radius:  2.3969382344 Dipole_moment: 1.835
 S           1.87261151306904   -0.21348133924699   -0.06793692226671
O           1.33845754935909    1.04667975456061    0.43271687523596
O           1.65198627519552   -1.31982287298291    0.82996012204113
O           1.38986108690318   -0.47604885549847   -1.42181934258654
O           3.44138157429827   -0.01970797408252   -0.17911563975198
H           3.54095711504819    0.76632317860428   -0.70907854239426
H           0.10631193165408   -1.53332079117024   -1.09512315346988
O          -0.66247953289805   -1.95805486304339   -0.66012844871685
H          -0.27407347666143   -2.57078424020580   -0.02939579048635
O          -2.41399392836155    2.03814203908028   -0.66741141101968
H          -1.81778092105316    1.70975782417725   -1.37743380126814
H          -2.19395187049628    2.96341368134510   -0.54931788100917
O          -0.63056009682109    0.99168845086840   -2.39151142854304
H          -1.02027731611376    0.33449930545013   -2.97176593700891
H           0.17176591946625    0.56714628445467   -2.02400135806402
O          -0.05059069096181   -1.08933299771516    2.89853315522325
H           0.61648759305728   -1.22087951495952    2.19345148882304
H           0.42614242008052   -1.15950596029606    3.72604471370804
N          -1.12918384033122    0.23632519722450    0.82735823864899
H          -1.83676798683162    0.91496376036229    0.47263721400674
H          -1.13349895922205   -0.63572172317040    0.24016647613295
H          -0.16942013148640    0.66589267931180    0.71278196014962
H          -1.22338421689295   -0.03817104309735    1.81038939261727
