    23
        -45.37824986  Gyration_radius:  2.35326489213 Dipole_moment: 2.050
 S           0.05864366141909    0.63512179582380   -1.57866310105864
O           1.20836728173566   -0.10291370212321   -1.05261648136441
O           0.32324468609275    2.01645427843925   -1.86235168949876
O          -0.25453085521829   -0.04736148954095   -2.99637066214937
O          -1.11667853531889    0.39997844773712   -0.75115376469170
H          -1.53462612964090   -1.01547066450460    0.21140062921736
H          -0.26810502623819    0.70107483765655   -3.58469728431459
O          -1.32914498445839   -1.85397849748526    0.67054295117777
H          -0.95758429277880   -2.40716657541061   -0.04460611982112
O           0.09351982934593   -2.49940216774245   -1.53141690266405
H           0.61153252549442   -1.67993206015923   -1.42782877743188
H          -0.36383379964991   -2.39777509945257   -2.36851676063388
O           0.52388893313836    1.46477038269616    2.78560983669243
H          -0.15654452559592    1.53657355450920    3.45740695361639
H           0.19302441264564    1.99201647365833    2.01419890032482
O          -0.55629924950347    2.58087794556389    0.65700789541374
H          -0.03007171805621    2.90693370647580   -0.08419759826500
H          -1.01619234332303    1.81544234041289    0.26804982206187
N           0.93251128343134   -0.81934445827574    1.47000605989923
H          -0.00294789355027   -1.32731559855085    1.33348655474021
H           1.64940248870026   -1.43676399366492    1.83512413771966
H           1.18500227666647   -0.49201398932837    0.49956404805513
H           0.80742194468938    0.03019454321480    2.08002134297114
