    23
        -45.37639996  Gyration_radius:  2.38020688569 Dipole_moment: 4.376
 S           0.05703607625988   -1.68744012956840    0.45762705848432
O           0.64493950419816   -0.72908885050135    1.38656258785384
O          -1.07104887175275   -2.39993761596941    0.98242104244099
O          -0.23181308862951   -1.02840884339981   -0.82709131595493
O           1.19207260423987   -2.74551189410097    0.15064734042912
H           1.94324514322390   -2.20368353207066   -0.10440190934762
H          -1.46956475279115    0.20663230543681   -0.85661411391914
O          -2.00001990667569    0.95200592537005   -0.51129397011613
H          -2.52663466607872    0.54232445523300    0.20635245015247
O           2.00393278741981    2.10437642941247   -1.11367225034520
H           1.64883245967878    2.36004726546368   -1.96728794761700
H           2.23980073565613    1.15479754023855   -1.18594058723155
O           2.20673209632472   -0.57665656127896   -1.43731530552211
H           2.37599787561819   -0.93487063743881   -2.31118446076475
H           1.23565564652621   -0.70966107522438   -1.26615053526221
O          -2.89842385394433   -0.54850518271806    1.51896757698965
H          -2.21933945162828   -1.24840792915236    1.40442359898991
H          -3.73733331125017   -1.01035886620758    1.57240677446061
N           0.12374983414600    1.73548502314869    0.79461328300833
H           0.03853795405307    2.37469443677739    1.57636392993207
H           0.37871216062865    0.75362530014587    1.13192858835410
H          -0.80226342233163    1.60371117153376    0.27355869529195
H           0.86719645712008    2.03483124484265    0.12507945969458
