    23
        -45.38252912  Gyration_radius:  2.27567007244 Dipole_moment: 2.970
 S          -1.83840003842180    0.51282946235555   -0.01342423831991
O          -1.04012240217619    1.02343318326334    1.09706555136382
O          -1.71851716834312    1.36876589687595   -1.18623170543675
O          -1.58081932211930   -0.88239416618214   -0.29401596525567
O          -3.35152444382256    0.59993670526962    0.44723251827242
H          -3.51569633975132    1.53731016153667    0.48068451240583
H          -1.00931211473111   -1.70133499517820    1.36266762030045
O           1.90346160342864   -1.30819343261497    1.00488838288451
H           2.53292619494851   -1.82862147870901    1.50517246399489
O           1.56924899933974    1.40387252119035    0.61488823056003
H           0.64112324289043    1.42266387349696    0.92634495974797
H           1.88516455967227    0.50866560898746    0.83303276718276
O           0.73050948876208   -1.54436573037868   -1.48406039153208
H          -0.18891606793140   -1.49136706144402   -1.15453178674942
H           1.27792507068888   -1.61854004136569   -0.68190091394539
O          -0.48088197726962   -1.36090817669739    2.09936509584553
H           1.03197689703157   -1.38348705905037    1.48526387335693
H          -0.66386747495880   -0.40372551705888    2.05257353590888
N           0.78157299481396    1.04756470513149   -1.85445569826543
H           1.17025323262237    1.51179415356361   -2.66721125930189
H           0.85779318085825   -0.01444747072206   -1.90553523785507
H           1.25360168521513    1.33593765635191   -0.94284915669016
H          -0.24749979103490    1.26461121054534   -1.72496318831132
