    23
        -45.36921735  Gyration_radius:  2.40094259741 Dipole_moment: 6.593
 S          -0.46446547597170    0.15421271442444   -0.80141222005031
O          -1.14880430160401    0.05791301574542    0.48343503596292
O           0.48603840523855    1.24511262336196   -0.83585433392019
O           0.16116055412964   -1.12935446416201   -1.13760527299615
O          -1.54479906710185    0.44392466607912   -1.89543847969814
H          -1.96427056933498   -0.42265429578295   -2.07974664284319
H           1.08457890225710   -1.76539244036501    0.08395566875335
O           1.50473108982684   -2.13471204841371    0.89756094130497
H           1.19208874488929   -3.03900994361499    0.96155792660861
O          -1.97022285753835   -2.13846366413251   -2.27047164081436
H          -1.77707950176615   -2.42339627517116   -3.16654912241031
H          -1.10661994217668   -2.02384145809838   -1.82124842934045
O           2.18921773104804    1.83132248932292    1.09041358495874
H           1.56790992758333    1.78264466928263    0.32876513580800
H           3.05165982189833    1.60716034449432    0.73554533548208
O          -1.60427364593667    2.99434294929064   -0.38298261495406
H          -2.29558739067476    2.45942450801135   -0.77671753409992
H          -0.78304629947344    2.52071600137676   -0.56499364000563
N           0.68970375907449   -0.00333683429383    2.27427076834144
H          -0.17480525302280    0.09668628126924    1.64055856909482
H           1.10840599175744   -0.91759925688741    1.98714988716080
H           1.34997799942789    0.76930535773854    1.99154032797475
H           0.44850138750245    0.03499504046175    3.25826673967013
