    23
        -45.34939805  Gyration_radius:  2.55577872557 Dipole_moment: 4.719
 S          -1.90568972354576   -0.74990714237876   -1.26412782439616
O          -2.61697990024371    0.43822171933368   -0.90041007578288
O          -1.37738566405141   -0.82891960293343   -2.58815255733959
O          -0.82491899394226   -1.05877883548028   -0.23491774142963
O          -2.87981701206553   -1.97134727000842   -1.06413334108730
H          -3.36187071104428   -1.78250239208026   -0.26231216388985
H          -0.02835047475920   -0.33562060391564   -0.33556365436864
O           1.00805183724533    0.55403690203362   -0.58096095660356
H           1.37680649313331    0.17811062069842   -1.40716096538628
O           1.30800429661184   -0.79343239228461   -2.86268739103455
H           1.55707852863666   -1.71087130155526   -2.98669800010683
H           0.33463931084362   -0.76656970423635   -2.93694518026241
O          -1.06145396476104    1.97216170906610    0.73020706540790
H          -0.27311212716720    1.94008412998955    0.17662928100190
H          -1.75449920408134    1.52840910274067    0.21385600569503
O          -0.06248296964082    0.76463647172495    2.94066315230490
H          -0.24952466707792    1.37184020210337    3.65799579635123
H          -0.49303832033857    1.15359291375279    2.14882380160767
N           2.35708971628193   -0.00982326576635    1.58172489635790
H           2.59347116093754   -0.98622412798591    1.70146497107136
H           1.63843882129466    0.35021042620132    0.18919530817338
H           1.56906878523009    0.19591605035737    2.20046531482173
H           3.14647479236761    0.54677639073005    1.88304426889710
