    23
        -45.34628014  Gyration_radius:  2.5218843604 Dipole_moment: 4.465
 S           0.39019650660846   -1.42690777677762    2.37639056143428
O           1.79261864227189   -1.43865639955840    2.11899595776900
O          -0.16309716503559   -2.24996605072082    3.38852500350262
O           0.01495965005380    0.08217650265260    2.75813667808306
O          -0.37680896828116   -1.59971817531862    1.05131039938658
H           0.34334519508699   -1.55336536161742    0.28939459669004
H          -0.76357359398364    0.02817493744907    3.30920343360480
O           1.30020285304822    1.08460941248033   -1.41722019423119
H           1.93410459390263    1.48689913058339   -2.01213685558297
O           1.53519067969839   -1.40202024098872   -0.52452778574191
H           1.52841278458941   -0.47280938126393   -0.86425718103562
H           2.12480657535802   -1.42304649921157    0.24556713688408
O          -2.18652926334582    0.29004881113642   -0.18293563841192
H          -1.66007357559942    1.03993189664126    0.15817261592287
H          -1.81816851830618   -0.49825484241795    0.23017120272476
O          -0.26379679080245    2.03571003395584    0.68675741982882
H           0.03795676075543    1.58141618726921    1.48028899338735
H           0.38530506480850    1.84169445271183   -0.00817203482252
N          -0.90065042846961    0.50007010470037   -2.70559962547182
H           0.46113751985646    0.89728588588037   -1.96121009015152
H          -1.52624313440352    0.38927343311109   -1.89955759158620
H          -1.31288647720545    1.19122559811287   -3.31910341134094
H          -0.87640889060435   -0.38377167881220   -3.19819358084473
