    23
        -45.35287060  Gyration_radius:  2.60427912197 Dipole_moment: 6.860
 S          -2.37282124152326    1.30796114280028   -0.93782890899935
O          -1.52277681753122    0.20442989693181   -1.32423734583172
O          -3.53274050365204    1.55547051919852   -1.69856443247049
O          -2.76592248772037    1.09740699452653    0.56238680616659
O          -1.50490989415343    2.59485553671291   -0.89876708574830
H          -0.62193321167461    2.41525225348752   -0.47325980676241
H          -2.04191285494397    0.60341998486007    1.00199887247555
O          -0.53261466006751   -0.17685408481982    1.09981058205983
H          -0.71039653405065   -0.42553621182512    0.17630506376120
O           1.16424252595700    0.24958124194213   -1.86931455325268
H           0.19729825774843    0.16674285687853   -1.89073566360986
H           1.35053182683512    1.00631920238022   -1.30353904394658
O           0.69887028331477    2.00115700999157    0.36879599132569
H           0.88070367695694    2.61049228503140    1.08640955987590
H           0.36065308282826    1.15698167046933    0.77344696751912
O           2.16339214247625   -2.02519285382295   -0.78073760775749
H           2.36372116337390   -2.60366728059632   -1.51733771430549
H           1.84321094338295   -1.18938023294882   -1.18168243765316
N           0.96557583611707   -2.19575369314745    1.82768515668783
H          -0.00091127453085   -0.94842239445656    1.48401404633667
H           1.48090062793461   -2.25541464591911    0.94760469250904
H           1.63900400747648   -2.06847093640335    2.57198964421948
H           0.49883509536810   -3.08137825119983    1.97555720741349
