    23
        -45.37528722  Gyration_radius:  2.35696597687 Dipole_moment: 4.104
 S          -1.60443930906463    1.15605775395887   -0.36557746752737
O          -0.62733349325672    1.76694674244566    0.53279863588962
O          -2.47065252494282    0.22933174434950    0.33214324391417
O          -2.53709080531144    2.33478055984427   -0.87998882173356
O          -0.98031479099800    0.59625790967070   -1.55274882180576
H           0.63081507398081    1.21327007528359   -1.61177744807943
H          -3.16493762968342    2.43409973490017   -0.17104902877243
O           2.68366650570306   -0.69401348985200   -0.71628763865367
H           2.90203215019520   -1.01682818953020   -1.59181696115210
O           1.43554134898965    1.55844605566990   -1.17680996834104
H           1.05973636377108    1.95303622425358   -0.37664712751659
H           2.29225070618468    0.21356620848503   -0.85824624916217
O          -1.36553275692948   -1.87603344330648   -0.72783187571206
H          -1.14095630529050   -1.21425321197110   -1.40616299743258
H          -1.99216583877702   -1.35821785397396   -0.17927837539929
O           0.23768567093134    0.19936424723689    2.40719699899948
H           0.95512290324269    0.71341369137072    2.78333266687639
H          -0.20282041491906    0.79846434837749    1.75066270367887
N           0.78793137476526   -1.82305358534528    0.76948993074077
H          -0.09002428526223   -1.93107643059830    0.16081340100139
H           1.03241747087026   -2.70319882111503    1.20984675011737
H           1.57936224569146   -1.46370164461229    0.17071766140566
H           0.57970633008461   -1.08665863551193    1.49722077869239
