    23
        -45.35843381  Gyration_radius:  2.30567892577 Dipole_moment: 6.497
 S          -1.94034816178686   -0.69472877910136    0.62282631353123
O          -2.33954215807998   -0.04250357131693   -0.59916701436506
O          -2.93251490016829   -1.38712673301842    1.35430241905817
O          -0.74465966098909   -1.62375251055161    0.29365666111961
O          -1.28975222851502    0.38125566158775    1.55447868414366
H          -0.29872996932651    0.40757590439663    1.44721136678801
H          -0.37604432409482   -1.27371238485356   -0.59895260645002
O           1.30851164145580    0.43754676950550    1.38013215075642
H           1.65324743142358    0.42265547951261    2.27454303457630
O           0.89759609044961    1.70747397984567   -1.07317578633422
H           0.04173414944522    2.16893943423516   -0.93859463262721
H           1.23998111885101    1.52780373254083   -0.18864454598669
O           0.03843787190822   -0.61637418068613   -1.88640026747050
H          -0.84521083773027   -0.40992788660083   -2.21104385770080
H           0.44214755680518    0.27328367695034   -1.65737709487512
O          -1.58406430065733    2.51420760656031   -0.43036570222479
H          -1.99203942452780    1.64093422549705   -0.58995310347868
H          -1.72561264938423    2.69710524531888    0.50078970785900
N           2.16976755742632   -1.71397877025218    0.11112561115058
H           1.65307452432406   -0.39029124222919    0.91613569307987
H           3.10064737864906   -2.09494292494320    0.22545700804848
H           1.49356278927267   -2.42513353977627    0.36422330147092
H           2.02981050525233   -1.50630920262069   -0.87120733007422
