    23
        -45.36688433  Gyration_radius:  2.31515786678 Dipole_moment: 3.712
 S           1.28396594640094    0.43143207935734    1.45703118767372
O           1.92294285453161    1.71100581037748    1.42452077522776
O           1.67423731914765   -0.48706944423821    2.49293784816239
O          -0.29545554954931    0.74362328948195    1.77644042120848
O           1.21329087424898   -0.18915054106777    0.13077411471599
H           0.77354284853052    1.19063490119182   -0.62400170303003
H          -0.27851588637494    0.91473258684178    2.71312950378509
O           0.38559815274154    1.92902121432617   -1.14769252431517
H           0.83020725446118    2.71163556986626   -0.81480835259293
O          -0.04100871406307   -2.32601808370793    1.56574848670963
H           0.60141291185931   -1.66486497508173    1.88834677688539
H           0.15790021145455   -3.12548516298124    2.05663916973452
O          -2.09722350629589    1.15860898400382   -0.27324379135640
H          -1.78940327368235    1.14953546513482    0.64358879191330
H          -1.39239079503078    1.63520679724174   -0.75112575477660
O           0.33763995655535   -0.22290047412137   -2.97320345266540
H           0.28147364348467    0.67165824567702   -2.60096730098024
H           1.23173927911860   -0.51665254466008   -2.78198709843479
N          -0.98970682802665   -1.17789822617246   -0.84717275536916
H          -1.36312576763138   -2.08415456988564   -0.58656693336054
H          -1.64508695748643   -0.37637172245378   -0.63356421129718
H          -0.11874833038514   -0.98420706400880   -0.27651873184384
H          -0.68328565413678   -1.09232214415332   -1.83830446578790
