    23
        -45.35638757  Gyration_radius:  2.54425845987 Dipole_moment: 3.584
 S          -2.21713789498526   -1.58133561131474   -0.38621670495240
O          -2.18987039108212   -1.44751760562164    1.04266796409425
O          -2.28943143995174   -0.37232851594710   -1.13869310396087
O          -1.06367085804135   -2.46215262608756   -0.85880269051538
O          -3.45890522324286   -2.46857103354956   -0.76214419646788
H          -3.47876787970584   -3.16653390271459   -0.11146408104946
H          -0.14045767756098   -2.00800941203490   -0.58329803830664
O           1.69582457249484    0.97234647735541   -1.45018277400565
H           2.38726596211729    1.12389440026443   -2.09502952354650
O          -0.82181306326358    1.81158890743269   -0.44812387075953
H          -1.49326170243608    1.19278454755626   -0.77868043359122
H          -0.04624995855370    1.67495481567791   -1.01014128518923
O          -0.16136965283821    0.26978510221483    1.62232422925092
H          -0.43812262956966    0.97137409700501    0.98324949200020
H          -0.94412391030169   -0.29517030803539    1.72083564174329
O           0.99552973952889   -1.28714258794151   -0.14608258892660
H           0.66327966629507   -0.76092342987321    0.63219744613263
H           1.24520484782447   -0.60785291761653   -0.80620751663420
N           2.41899348029170    1.72579921429084    1.01743064364369
H           2.29015846685717    2.71695670738772    1.17931955906610
H           2.03405710185560    1.30070724825484   -0.56967053454096
H           3.31527403786055    1.45750298162823    1.40412397135002
H           1.69759438640849    1.23984345166858    1.54258841516545
