    23
        -45.37056234  Gyration_radius:  2.28461044679 Dipole_moment: 5.950
 S          -0.53771891486933   -1.36169420132288    0.23082729187753
O           0.12230795690662   -1.45407169390118   -1.06029566079430
O          -1.56265660576422   -2.33870638814517    0.46610021369886
O           0.61881324548900   -1.56071890647753    1.29357721856306
O          -1.02396351230569    0.01383378513415    0.45935251877503
H           0.11418374188788    1.17436129520414    0.67845451181724
H           0.12465020148234   -1.56499139946870    2.13770395688480
O           0.79507535117546    1.88839378315468    0.61788528854717
H           0.33153856790810    2.71018308691572    0.78741153883358
O          -1.76240413917497    1.18208465579589   -1.81242149540507
H          -1.61265046986681    0.78273641386969   -0.92557440053669
H          -2.36464040916535    0.58951330638012   -2.26485871840759
O           2.70500725364791   -0.11072546768551   -0.03205944628989
H           2.55424669771343    0.57399719908617    0.62603929433984
H           2.15472376603867   -0.85395606693291    0.23879185306394
O          -1.43614470540822   -1.41177825952214    2.93342381765422
H          -1.74958518396047   -0.51927871660552    2.76371219128174
H          -1.76081580531221   -1.94249081290962    2.18117753606749
N           0.88005355426384    0.86524257825018   -1.89709372144471
H          -0.06337413965910    1.19960173036885   -2.18582203406544
H           1.15722744146932    1.36196370822930   -1.02333021961597
H           0.72087496871070   -0.15700735429922   -1.60054131446252
H           1.59525112890288    0.93350771518831   -2.61246022044641
