    23
        -45.37304249  Gyration_radius:  2.4329861475 Dipole_moment: 2.199
 S          -0.84336410078222   -0.71132703521078    1.77858447048561
O           0.32304341333574    0.05315655747601    2.17361434268093
O          -1.92748045767093    0.13852288113089    1.30169390581055
O          -0.51922285624829   -1.77208127754686    0.83635521945500
O          -1.38792014574449   -1.43908483220665    3.07758346156991
H          -1.67370678255731   -0.70858157375345    3.61726847403725
H           1.00161398662260   -1.76327544195082    0.14646475732480
O           1.84059570278071   -1.67248712270095   -0.36085195053141
H           2.50687372338603   -2.13071629089325    0.15294970274135
O           1.52163263075867    0.98449706308104    0.03476597980135
H           1.17608309924094    0.78896632221848    0.93689887865150
H           1.89897352139451    0.13111527126353   -0.25340278551025
O          -0.79627825059968   -1.75917029972073   -1.84742094624408
H           0.12671074564081   -1.95801991180299   -2.03443659267365
H          -0.90744863919597   -1.97349425148789   -0.90146084459762
O           0.42560881812276    3.20586595056104   -1.42118642236993
H           0.73829316801774    4.10994758511524   -1.37726809205915
H           1.04340367417411    2.67592475214037   -0.89922840786959
N          -0.92973606209996    0.77246292248137   -1.01777851786920
H          -1.48697129931732    0.62444821622178   -0.12941405915011
H          -0.98284122468163   -0.11147671598520   -1.57854649394691
H          -1.21808477851653    1.60282549959554   -1.53031376398375
H           0.07022212406134    0.91198172206403   -0.70487031567293
