    23
        -45.37617156  Gyration_radius:  2.41979188754 Dipole_moment: 2.537
 S           0.71550241082135    0.59926185628778   -1.54681187630922
O           0.70091761019230    1.48411593507312   -0.38685180915800
O           0.49304919762123   -0.78556560467764   -1.16460406684485
O          -0.14847704098419    1.06270855936343   -2.60775043475337
O           2.19649472334390    0.64237943386205   -2.11812387394108
H           2.24193769945042    1.51554075920503   -2.49360087237711
H          -1.67201408710206    1.07351093962660   -1.96644503316063
O          -2.56940557079619    0.97392432826784   -1.57456068523206
H          -3.17752572853216    0.99348931135512   -2.31580254288899
O           1.17070434524251   -0.63538036190701    2.98690742119938
H           1.86660990100164   -0.05060278433644    3.29178194993062
H           1.54178442667106   -1.09453772923021    2.19359736743861
O          -1.93327355130887   -1.15182478632508   -0.07222367171568
H          -2.39548315092168   -0.47937201152145   -0.61375047381264
H          -1.08875315624873   -1.28766525191347   -0.54140108732074
O           2.10577065335750   -1.64591261920709    0.72524175841805
H           1.56121055288700   -1.27373751899221   -0.00550819610596
H           2.11918873041603   -2.59360797119237    0.57973817546139
N          -0.76039733974966    0.54138319817147    1.55280845619159
H          -0.17149104670986    1.00523747592184    0.79699232860698
H          -1.33103409743839   -0.20473741899013    1.04364798022969
H          -0.10028055511642    0.09171187580340    2.23451506726158
H          -1.36503492609782    1.21968038535610    2.00220410889003
