    23
        -45.38060773  Gyration_radius:  2.25780842622 Dipole_moment: 4.745
 S          -0.15461389793838    1.39801755900561   -1.28045596924743
O           0.13157916884948    0.60400939857360   -2.45083599234271
O          -1.40994330185091    1.08822284077651   -0.62610861372818
O           0.95355088257847    1.38423798134935   -0.31580810480036
O          -0.26154087333642    2.89532111351244   -1.79458661377319
H           0.06771024397808    2.80226990180754   -2.68187902810689
H           1.65661767920540   -0.00287399940643    0.06966700172204
O           2.01292866366836   -0.87106651242139    0.39748247855562
H           2.96024132611835   -0.75303235612002    0.47993818324003
O           0.29579557627843   -1.92826664368094   -1.60547111861615
H           0.23110806948954   -1.07672591331016   -2.08185447681388
H           1.05140011639112   -1.82906378704376   -1.01200284070144
O          -1.77631594459360   -1.47624031617869   -0.03416787525211
H          -1.13432222012668   -1.85260957226478   -0.68485392725187
H          -1.86694111027754   -0.54167449559757   -0.31553205588527
O          -0.51082325921481    1.62812380295008    1.84343354590265
H           0.19180919644796    1.71571459786852    1.16344919285466
H          -1.31280912738303    1.68632813088528    1.30549832412931
N          -0.21810319422479   -0.99350489511104    1.96073976596230
H          -0.33888567787054   -1.50845687712153    2.82493174778818
H          -0.35824599135200    0.05416515766488    2.09031223375515
H           0.72636316079425   -1.12803796990826    1.55825122042733
H          -0.93655947562919   -1.29485713622603    1.18985292218549
