    23
        -45.37488809  Gyration_radius:  2.28092474735 Dipole_moment: 4.133
 S           0.26207969584349    1.20810746193607    0.32224210134817
O          -1.12162517997353    0.89321763048148   -0.03717798825799
O           0.70397678483611    0.42995039375481    1.46934253636754
O           1.13573138833506    1.03927473236148   -0.83166336046864
O           0.31428787654199    2.70836837435057    0.75894541906876
H           0.00491037612975    3.18963316690786   -0.03317682727243
H           0.60031078941815   -0.40172670195695   -1.47420681904823
O           0.11496976984180   -1.23597150741524   -1.67063464603316
H          -0.79085201025576   -0.96605439911698   -1.84370444842806
O          -0.61082074567028    2.97991777413051   -1.70970128638632
H          -1.20457332736239    2.29545316624441   -1.36867830428621
H           0.18269562365129    2.50610039663030   -1.98849204561004
O          -2.47342674214544   -1.13006266889138    1.01364045819676
H          -2.96381370431864   -0.79968092728374    1.76779679295020
H          -2.05842405206991   -0.33952672209407    0.59711931792009
O           2.71291233367785   -1.16031504343535    0.41124585672463
H           2.88727694892434   -0.78760491920683   -0.45561255884885
H           2.27141717140259   -0.45406833657187    0.90192476095886
N           0.00817077720073   -2.03751239094205    0.85132040535089
H           0.14164762351970   -1.93030021696488   -0.19522147355286
H           0.37767331233948   -1.13293545499521    1.25216379109085
H          -1.01557368557071   -2.04047128031518    1.04701388739594
H           0.52104900570209   -2.83379253760918    1.21551441081831
