    23
        -45.37504028  Gyration_radius:  2.33525282001 Dipole_moment: 1.173
 S          -0.92148166968345    0.69668261235253    1.60461056561345
O           0.09828733140071   -0.35624972434143    1.69268671358521
O          -0.40765224056574    2.00060872009741    1.88948379906470
O          -1.60568534707172    0.61043471528009    0.31076835155768
O          -2.00496947533224    0.34121520990237    2.70205018388777
H          -2.25076093120448   -0.56141044695913    2.51947830894249
H          -0.81427265115754    1.89390855084932   -0.54520669332707
O          -0.10030656709297    2.53556133713702   -0.73398237648745
H          -0.10310847305505    3.09807530075807    0.04972446735279
O          -1.15505300043423   -1.04236952184213   -1.70093578871205
H          -1.81938652004739   -0.82926314693773   -2.35727254152991
H          -1.32978662126314   -0.44451207552852   -0.94049483470299
O           0.33274866900860   -2.63498201528181    0.21420178632892
H          -0.44187516278162   -2.52808776797282   -0.34955739950235
H           0.28024699951403   -1.91468673208384    0.86728096806899
O           1.58121120255210   -1.28917943772706   -1.72971710188671
H           1.41947624524083   -1.98132873233840   -1.05102352515397
H           0.68937264489804   -1.13137295314473   -2.08405775246345
N           1.73863248261219    0.72087398421493   -0.07000646877496
H           1.21792639432267    0.30720562772056    0.74700114105516
H           1.14163947844375    1.51645574489460   -0.42921210233677
H           2.65738094251823    1.04613605353958    0.21123612226555
H           1.79741624927592   -0.05371530249544   -0.81705581281442
