    23
        -45.37623437  Gyration_radius:  2.3969729437 Dipole_moment: 1.828
 S           1.20663669589419    0.29014223636630    1.42120298283196
O          -0.13222500051828   -0.19018804876178    1.73874196941916
O           2.02336394876932   -0.69918889506275    0.76313053411047
O           1.14094686959062    1.55138659474026    0.68654176895217
O           1.90385969629448    0.61168504192321    2.80750394790591
H           1.28810883897231    1.19144063564298    3.24720888915082
H           1.32108109750834    0.99512777165859   -0.90327953747001
O           1.25883133595865    0.43962275380639   -1.70853337098649
H           1.99360747339485   -0.17569223787794   -1.63377088967738
O           0.92783985082838   -2.94409151027657   -0.23167624655791
H           1.27958659196175   -3.71099444140397    0.22117612222875
H           1.39110858588767   -2.17093903516893    0.15180512873889
O          -1.20871752322639    2.35465190114137   -0.31838958880083
H          -0.40814154912797    2.06403181062856    0.16503113293417
H          -0.88161775231690    2.83227096199847   -1.08355557019766
O          -3.03978870346701    0.49201300322146   -0.97082873143137
H          -3.68949551715107    0.46526496789383   -0.26681866007781
H          -2.44736598924848    1.24833350573626   -0.75972192306922
N          -0.80859844137138   -0.94696328753490   -0.68412370515994
H          -0.09127150400396   -0.42416947814154   -1.24740650027505
H          -1.76944969993737   -0.63883493497608   -0.94671518995479
H          -0.61851638705799   -1.94993887391693   -0.77421517989531
H          -0.63978292762441   -0.68497041161804    0.32669260726209
