    23
        -45.35112131  Gyration_radius:  2.53162376934 Dipole_moment: 2.995
 S           0.67182363520856   -1.54909881372475    0.15037663691786
O           0.62091840975818   -0.91320145875324   -1.14842320526650
O           1.94479696747180   -1.57112775829663    0.78694979774500
O          -0.37664820718289   -0.89041108008926    1.05024942767293
O           0.17329960709703   -3.01268716342791    0.01541758307147
H          -0.61444790174402   -2.98954709896903   -0.56793869910775
H          -0.68221107391331    0.00572146877033    0.60518448632550
O          -0.84687722611398    1.20331825950837   -0.21623080022188
H          -0.29637771605912    0.90177625036177   -0.95099042736349
O          -1.54913910000608   -2.22242613994037   -1.81710948629720
H          -0.79964424132149   -1.59455171559708   -1.85598783022384
H          -1.68262455189142   -2.56688875013224   -2.70337819064092
O           2.81811896857746    0.87762517797777    1.56787162309486
H           3.53516824174385    0.72333974725948    2.18589086381284
H           2.53907887816265   -0.00365869065609    1.26353755192020
O          -3.28696915794587    0.07660056334463   -1.33736602161496
H          -2.65695673575209    0.63818403049659   -0.87342471929584
H          -2.89162713861767   -0.80120763427216   -1.37082798084653
N           0.72667476191853    2.82148278241192    1.08714950793857
H           0.35311798056809    3.14284551458482    1.97105199579853
H           1.08857541645267    3.62457335777102    0.58877779242790
H           1.50838081467840    2.19689952668548    1.28659960621232
H          -0.29643065109970    1.90243962468646    0.28262050794720
