    23
        -45.35287654  Gyration_radius:  2.34251020552 Dipole_moment: 5.870
 S          -0.37137855298797   -2.01827926616089    0.10582427492884
O          -0.16313629399133   -1.65278723939639   -1.27016736561949
O           0.76048836657719   -2.15613391811955    0.94454746636405
O          -1.37895731541956   -1.04517346529627    0.73172115896406
O          -1.14954799518239   -3.38804127309852    0.09755081188035
H          -1.61808501714998   -3.44289378571319   -0.73227614616010
H          -1.77378835133985   -0.45988333758349   -0.04759395497211
O          -0.45171569867149    2.26242782269942   -0.56555630880426
H          -0.31546483858100    3.15473417337603   -0.88507652065821
O           2.17813125971125    0.18226668612608    1.66739107065854
H           1.89720333878325   -0.74011320976106    1.62184503497889
H           1.41338270878925    0.66933753011398    2.02442432300960
O          -2.03035361602572    0.28725115835747   -1.26059854917062
H          -1.57670849337671    1.14473568169498   -1.05401070391424
H          -1.40483363215981   -0.21743076786704   -1.80112095298517
O          -0.31853360719556    1.29560736622621    2.07819092981514
H          -0.81790190706498    0.48095197272420    1.96528294509734
H          -0.42288744962932    1.78908593848263    1.25000130478939
N           1.59165085882305    0.73063049492156   -1.03190891953178
H           1.21065080089230   -0.17093248195454   -1.30285538542777
H           1.99732988045835    0.60478011253246   -0.09596870278037
H           2.34663624696135    0.95686261693020   -1.66659385469470
H           0.39781932377389    1.73299719143058   -0.77305194606274
