    23
        -45.36609284  Gyration_radius:  2.54306879205 Dipole_moment: 4.214
 S           1.85385360609434   -0.61315461290675    1.50983656477963
O           0.46165284009232   -0.27282494468841    1.80541902741892
O           2.76908932670755   -0.36856607459576    2.57893392491798
O           1.85945569707342   -2.21284052422739    1.29522409479204
O           2.23441751858672   -0.05131373586317    0.21459030659675
H           1.13876973600601   -0.97207674184678   -0.59036872325818
H           2.37595587704861   -2.48447188661277    2.04673669379785
O           0.47367469047587   -1.54333182739550   -1.03152741240194
H           0.51928134749532   -2.36546513783477   -0.53815540568353
O          -3.05741461637933    0.98847730901017   -0.04345809424131
H          -3.49887322421109    0.55159873452384    0.68722176736489
H          -2.79013898665387    0.26846586510595   -0.66076470294061
O           1.13533097929470    1.61012321057995   -1.52592987611458
H           1.74199361094150    1.11440218540761   -0.93542666367826
H           0.89377331277376    0.98438270967701   -2.21312762888046
O          -2.08852285489810   -0.97904938107051   -1.52993933577025
H          -1.15451870888545   -1.17206940034399   -1.28743687707541
H          -2.13869992586299   -1.05341342557339   -2.48349332615996
N          -0.55617128067304    1.73645169731286    0.54113230053528
H           0.00721907605856    1.80393286934193   -0.34474010698061
H          -1.56639297779773    1.53431087643732    0.32605263467928
H          -0.15050631307616    0.90800782151893    1.09589131662602
H          -0.46322872995860    2.58842437407876    1.08332952159958
