    23
        -45.37772651  Gyration_radius:  2.35679176367 Dipole_moment: 1.961
 S          -1.57260326021974   -0.79722475208169   -0.22248759959843
O          -1.78882552386413   -0.69239465323773    1.20668543797942
O          -1.31833135241303    0.48182585857242   -0.85685447273363
O          -0.54646450325418   -1.78690104946746   -0.54070291142821
O          -2.92046793610103   -1.33284467539817   -0.86414863501444
H          -3.07894474759596   -2.17291705335091   -0.44240967859727
H           0.49731963349144   -1.65935268366487    0.78825076405786
O           0.94062960793578   -1.26622769817834    1.56977773994678
H           0.24846585092301   -1.21405851563368    2.23642709186550
O          -0.94117958025359    1.60962092920089    2.32500452468141
H          -1.67028795012457    2.01629844962085    2.79416878120175
H          -1.30185252275075    0.78473767899401    1.94282076877200
O           2.66930865794332    0.97136788194059   -1.55566343361012
H           3.43212905019579    0.39741234046134   -1.47085704202808
H           1.98965552303290    0.44985507651473   -2.05014104894028
O           0.64740918419700   -0.45598542030724   -2.54410924968968
H          -0.08305936714758    0.17157035864610   -2.57899732524164
H           0.34728018295729   -1.11473019474277   -1.88965252222760
N           0.91087759575127    1.14827217480018    0.43375331211115
H           1.05512523606954    0.24764724228008    0.96779608071610
H           0.75340398238512    1.90182665207332    1.10254321206423
H           1.70557127026392    1.29249927476483   -0.23416394375746
H           0.02484097874995    1.01970276824790   -0.11703985050001
