    23
        -45.38062437  Gyration_radius:  2.25468259385 Dipole_moment: 4.360
 S           1.55891861729005   -0.42251251958462    0.99132385617370
O           1.83909843972952   -0.08240839447086   -0.39899843418480
O           1.53401663896925    0.72680108636857    1.86139223460350
O           0.37222482714269   -1.26585145943005    1.10467685277247
O           2.76149167240458   -1.33242524169263    1.48310355800570
H           3.39373823214478   -0.67669046063104    1.75682958309489
H          -1.09351428503835   -0.61447280606591    1.13634054517820
O          -1.99901396187268   -0.21926702983545    1.03439388404530
H          -2.55104575998670   -0.65152443229331    1.68749126142037
O           0.37807380653794   -2.01594470576765   -1.42272573330687
H           1.12680842979083   -1.38977901387238   -1.40647349796335
H           0.25178425013753   -2.17339081496821   -0.47015559859071
O           0.22251323695179    1.78526902074600   -1.39018611013243
H           0.97919752637433    1.21839304071064   -1.13174993994910
H          -0.07270681308995    2.18672816139945   -0.53594810711929
O          -0.54351538097275    2.22276008719873    1.09524416823566
H          -1.24954310241545    1.57567147057076    1.22214727717560
H           0.25314763706050    1.81568735187606    1.49056848985918
N          -1.46756509315414   -0.14357391657907   -1.64323491258023
H          -0.81425005182572    0.73638500056376   -1.64255879946837
H          -0.81019520683612   -0.98150588450423   -1.69072865373017
H          -1.93813122182685   -0.16769202077693   -0.72228432094426
H          -2.13153243751620   -0.13065649896314   -2.40846758259422
