    23
        -45.35223605  Gyration_radius:  2.49119288118 Dipole_moment: 2.524
 S          -1.24497785463318   -1.17302318364812   -1.61608119891062
O          -1.76061940446684    0.15343008451824   -1.85881276262556
O           0.14402448274141   -1.36326752354435   -1.85593845855029
O          -1.65436906942161   -1.63649828311333   -0.23233423002130
O          -2.04372766556451   -2.16064084999672   -2.54352210113670
H          -2.95477440184184   -1.89536447250257   -2.44929138739733
H          -1.52335981097965   -0.86572362372558    0.55861747633925
O           1.10209824245578   -0.39602165494880    2.27866749707880
H           1.17556968898180   -1.22297510380844    2.75607696072645
O           1.75285653858675    2.16937730686421    0.55701267307640
H           1.65835928105618    1.76911949467841    1.42564508179736
H           0.85955093501392    2.23002983638099    0.19184459735468
O          -1.31391252093903    0.09111592292553    1.47424609798460
H          -1.22560664461988    0.92365920406907    0.96229459441712
H          -0.40209590994975   -0.09302229351045    1.85580557808270
O          -0.95895616044427    2.08498997606272   -0.28337058067127
H          -1.48990286872858    2.86717765813131   -0.44419883804495
H          -1.20086096915760    1.43413978313021   -0.98160010496844
N           2.28093289572462   -0.63529357899702   -0.04175114969673
H           2.44287040939723    0.34997835263198   -0.23876593283693
H           1.60957137925894   -0.97456847878205   -0.72746491516613
H           3.15134894159399   -1.13022277290379   -0.18671528077890
H           1.59598045589340   -0.52639579993473    1.39963641395014
