    23
        -45.36083057  Gyration_radius:  2.38204226323 Dipole_moment: 4.212
 S          -1.19554488202510   -0.37486316462968   -1.15620833885644
O          -0.12590737096935    0.59398800227911   -1.30799173476676
O          -1.09808394577556   -1.55579163680813   -1.93982175885190
O          -1.25843475274640   -0.74240142897859    0.35351389225005
O          -2.54122999318046    0.31186498714649   -1.40630956213468
H          -2.44532415970569    1.26236320167785   -1.05664793357139
H          -0.42780867902388   -0.36246385999290    0.80347901132164
O           0.86079819824439    0.36224956331274    1.21746940426052
H           0.95108582748414    0.76971703914531    0.34445435808889
O           1.63613160877478   -1.47773575709978   -1.83581341755977
H           0.83579987271837   -1.96840137287869   -2.06211134903853
H           1.34959040490517   -0.55669773850571   -1.86511318526227
O          -1.87439027193833    2.56952646834747   -0.45911754329266
H          -1.77408397170029    2.43252462674128    0.51029929424076
H          -0.99394420505488    2.47076163224340   -0.84078042015711
O          -1.40023909699518    1.75549293982385    2.06029444602874
H          -0.49193606007875    1.41968029334604    2.04352002845866
H          -1.96617397930273    0.99449893090104    2.21042425770781
N           2.46970519821918   -1.66514741334965    0.89686413053853
H           2.31207420062327   -1.75138914110653   -0.11127202834282
H           1.53254995633174   -0.40042882184913    1.22124379708800
H           2.18130061805039   -2.53257563501394    1.33072619334755
H           3.46406547314490   -1.55477171476141    1.04889846852863
