    23
        -45.37695560  Gyration_radius:  2.34879073376 Dipole_moment: 2.657
 S           0.91618206393834   -0.55603081203758    1.31693913145035
O          -0.34632865602444    0.14718808465981    1.34918836141121
O           2.00550291215386    0.17459087625935    1.92331258400090
O           0.74195083526154   -1.88272561143934    2.19076540352006
O           1.23271190066451   -1.01929276805373   -0.03759917624915
H           0.03827501016739   -2.26073214499256   -0.25723181195400
H           1.50331936452152   -1.87163149552915    2.76333693644558
O          -0.75242323773041   -2.82637648026881   -0.20368150567832
H          -0.77417006336788   -3.14621250135569    0.70076419239710
O          -2.29775901674980   -0.58940240134264   -0.33292638716502
H          -1.98054464745253   -1.49930620285879   -0.48221189525610
H          -1.71161516595489   -0.25682108135385    0.37441291753132
O           1.10459846003804    2.44450261575578    0.90312034772314
H           1.62934266266482    1.74699043031868    1.35139336948331
H           0.22260122592274    2.33032718374551    1.27384919252509
O          -1.64427299663080    1.07335833283046   -2.20855805844468
H          -2.22382961553189    1.82443446348353   -2.07187826240819
H          -1.95958540020282    0.37028035847724   -1.56379297705929
N           0.86862546219442    1.17372939025043   -1.42191376018376
H          -0.13053306851609    1.19144393438298   -1.79336766079042
H           1.04657596095472    0.21732190561384   -1.00819725097564
H           1.53588126623954    1.37577291818377   -2.15916654772882
H           0.97549471341623    1.83859100527671   -0.60655713260480
