    23
        -45.37314082  Gyration_radius:  2.31870464208 Dipole_moment: 5.346
 S           1.71411282990537   -0.37377312166278    1.32057800126465
O           2.64135328648796   -0.29635773324521    0.19914625077206
O           2.30482830963011   -0.52262535251389    2.60832458445771
O           1.02780333497057    1.12540338174798    1.35886267149122
O           0.58228138284189   -1.23642329971946    1.01817659851079
H           0.07747417645796    1.80769371193947   -0.11297769424577
H           1.70736882073658    1.58081084844324    1.84530913869654
O          -0.33070331625897    1.86267491353943   -0.98974807705436
H          -1.18600957120544    1.40232912313694   -0.90802872743654
O          -0.74976875475950   -1.86800455301351   -1.22755480979098
H          -1.49403488874677   -1.25580068565474   -1.09203299480330
H          -0.32708433882187   -1.93671792763566   -0.35159056805160
O          -2.44905256534049    0.19940467780710   -0.47425549954617
H          -3.40570462236482    0.23668859865075   -0.50074014658754
H          -2.19689455576495    0.08731360456472    0.47999762309249
O          -1.55908804378805   -0.08921221346149    1.98786261826498
H          -0.76868428510530   -0.61829192160358    1.73109054058822
H          -1.20856912512757    0.69902531034022    2.40731354213339
N           1.13722200911755   -0.16098905459172   -1.89370212147722
H           0.61936064657942    0.74327574845272   -1.74055304777839
H           1.82961076980470   -0.26043094581488   -1.08042684679197
H           0.41989272001530   -0.94148904671758   -1.79726496943752
H           1.61428575069981   -0.18450406280193   -2.78778610615378
