    23
        -45.37143687  Gyration_radius:  2.37319916786 Dipole_moment: 3.751
 S          -1.92808095647868    0.54201988099858   -0.21908949594810
O          -1.62493538225611    0.41814884745557   -1.62529798936898
O          -1.67125096298791   -0.70928187101383    0.50519687381608
O          -1.28550864851840    1.66416446186643    0.43571248705655
O          -3.48842160243529    0.79578954402557   -0.11717130423862
H          -3.81222032865450    0.28695908433401   -0.85335366400100
H           0.30872691656029    1.60926548462798    0.43563840173351
O           1.29101752180852    1.44925389346156    0.47216842029784
H           1.60968536132457    1.97336986136140    1.20946700470599
O          -0.47283317370296    0.23723628938628    2.77159352036977
H          -0.74033665911697    1.15594123882903    2.83685587752257
H          -1.06202108202999   -0.13571238955730    2.09579517305935
O           1.90277263496032   -1.99328964874352   -1.63183581525564
H           1.52782732067870   -1.15152599740413   -2.00375062778907
H           2.81370157793958   -2.03226302732459   -1.92606007034962
O           0.97500667218418    0.40024913589920   -2.19559457419376
H           1.28147890623513    0.98571928916661   -1.49382108488485
H          -0.00284812960263    0.40402406044323   -2.12575597866391
N           0.89636931453166   -1.20439527667040    0.69461492008086
H           1.34677735455206   -1.68487404216466   -0.12378185333815
H          -0.15274031449088   -1.15465722958122    0.55066190922404
H           1.08348121451474   -1.65496530726220    1.58510819333918
H           1.20435242499010   -0.20117626208835    0.72269966683005
