    23
        -45.37504646  Gyration_radius:  2.35660071121 Dipole_moment: 7.222
 S           0.70431138524522   -1.32869824601357    0.09812763340780
O          -0.52090513198902   -2.06560405218949   -0.16037708063257
O           1.19243766740504   -0.59847672518322   -1.04826718489903
O           0.51846949119842   -0.42450878343228    1.25387094472489
O           1.82434302512019   -2.34485133729113    0.50658323123282
H           1.41422046477212   -2.83398468245762    1.24508469676500
H          -1.09983777912994    0.01741782651970    0.98874166364564
O          -1.93000400062480    0.13409063800893    0.47688413249845
H          -1.96728167545432   -0.69835529257109   -0.01719185064465
O           1.13341925691694    2.08233278723031    0.80482796063404
H           1.04581347059417    1.10355550090477    0.92228887215059
H           1.16106767365345    2.44684216472802    1.69137773184075
O          -0.04151370582258   -3.00898997972147    2.27809766682306
H          -0.51460694721329   -2.89840569067813    1.43336724299774
H          -0.01874694815229   -2.12940295910052    2.66810569705192
O           0.13451431232052    0.80707128830468   -2.94112602849433
H           0.50129152870586    0.14625332265095   -2.29905870294731
H           0.89763418962918    1.13259681036576   -3.42271396268502
N          -0.90318316407032    2.12521732731260   -0.90693655169844
H          -0.53194390311308    1.70694751508282   -1.80878775970211
H          -1.44567003309460    2.96618574025696   -1.06849340966853
H          -1.47375007420908    1.36786757213384   -0.42160395382378
H          -0.08007909268360    2.29489925512697   -0.27280097857631
