    23
        -45.36202741  Gyration_radius:  2.34488268583 Dipole_moment: 2.131
 S           1.60062507615764    0.63305240068228   -0.49393933332160
O           2.69288193883882    0.01161812147667    0.20374082587386
O           0.90956005852625   -0.22278023795288   -1.44285090471350
O           0.64243994807336    1.28696589447156    0.40565161538540
O           2.24382974134433    1.80390424147904   -1.35716637766801
H           3.13463966980872    1.85141485452106   -1.02533735116184
H          -0.74397356066744    1.40868936110398    0.03403948133326
O          -2.47173423758636   -0.77567713419775    0.80345079258029
H          -2.66885261835355   -0.66599315928458    1.73544595134641
O          -1.24254777762698    0.57924945046255   -2.63825965701312
H          -0.34491100833648    0.29402859803823   -2.32849512895648
H          -1.69218329424959   -0.21802645634824   -2.92684155438251
O          -1.74663771501523    1.36060547615999   -0.27244111571683
H          -1.68032129264333    1.13982499502122   -1.27095993627410
H          -2.12704815782091    0.48459059294777    0.19419012936697
O           1.43247866180329   -0.32241502073724    2.55443467017375
H           2.09917124853809   -0.30247664813657    1.84577202208053
H           0.97308423830042    0.51709917633650    2.45950055754806
N          -0.13342457020867   -1.83324403096980    0.70133900872419
H          -1.56425853704314   -1.28034875343090    0.75670090501917
H           0.31464822499281   -1.43624183423081   -0.12141726486883
H           0.38116681730028   -1.47674546869775    1.51128197393726
H          -0.00863284396030   -2.83709441859919    0.67216068062921
