    23
        -45.37366121  Gyration_radius:  2.39531945524 Dipole_moment: 4.323
 S           1.72157279459338    0.18689530719810   -1.31523904175956
O           1.86936186491602    1.60600006440272   -1.07321508279764
O           1.43796696586235   -0.57794447886050   -0.10687796422950
O           0.78673665855234   -0.11200733331861   -2.38516503108386
O           3.14796643024325   -0.33750411311964   -1.79875812689607
H           3.33963802630162    0.22814867580046   -2.54061180350603
H          -0.01800683904204   -1.44021244214752   -1.92354757866842
O          -0.44091497305893   -2.09883406013701   -1.31560479976227
H           0.22925585627602   -2.19692520710170   -0.62730508821615
O          -1.77441209032052   -0.53597525577772    2.46618393472952
H          -0.84460255999423   -0.22182073064575    2.42198050405056
H          -2.22254582931716    0.03617106262928    3.09088455762274
O           0.64657892235697    0.56161538914922    2.08005403146554
H           1.40282045016624    0.60473049667446    2.66672832397119
H           0.97857601586775    0.12026229535639    1.25228299989155
O          -0.52650217157173    1.90664642508332   -0.07787837651212
H          -0.23258202609130    1.80757862789275    0.83910521839533
H           0.31393995476136    1.90487702520690   -0.58966844976926
N          -1.98951348127446   -0.29015950147051   -0.21847853864426
H          -2.89425942449420   -0.18631129162363   -0.66402630316356
H          -2.08221520845268   -0.49071264736199    0.80090734761960
H          -1.42783423983783   -1.08181711250637   -0.68025962419784
H          -1.42102507645108    0.60729882468740   -0.30149110853803
