    23
        -45.37764947  Gyration_radius:  2.38582944932 Dipole_moment: 2.216
 S          -1.62376835119076   -0.85804648475914   -0.21451891048839
O          -1.36727168453158    0.22294939746023    0.74486504064980
O          -1.50071750686153   -0.40776167953379   -1.57785959132784
O          -0.81981206146342   -2.02612635998156    0.10266197883609
O          -3.13528705143797   -1.28781304320465   -0.00861383928135
H          -3.13245547646292   -1.80325560084363    0.79330531305936
H           0.51862802087154   -1.74856554004277   -0.88192425163137
O           1.17374043227974   -1.30674102497238   -1.46383563958130
H           0.71021518252215   -1.18022530376202   -2.29661956373734
O           2.31918637169134    0.98467511115728    2.05423572853565
H           1.73766888845872    0.21903549904439    2.27103310508159
H           2.27597443877456    1.57208613924316    2.80980207652702
O           0.43075243327913   -0.89137914044328    2.38589694464195
H           0.50546829523871   -1.72106980184651    1.90403116568654
H          -0.31342267189925   -0.43395263447199    1.94910858548616
O          -0.45814761291388    1.95520458008483   -2.33742903844914
H          -0.89756620528723    1.10716065728601   -2.12287555345046
H          -1.07392490737802    2.43858371188329   -2.88884904530273
N           0.95281970375658    1.06005901333624   -0.24386208798417
H           1.22084239022276    0.17095172003827   -0.74563523677028
H           1.62993487225299    1.25730429091839    0.52395770587392
H           0.83659482710341    1.80465848852417   -0.93771414038405
H           0.01054768295077    0.87226801485171    0.18083925404605
