    23
        -45.37249421  Gyration_radius:  2.41147467958 Dipole_moment: 4.527
 S           1.86353789429193   -0.85399831465628    1.08172113231022
O           1.12218623219476   -0.44321095511881    2.27525190321745
O           1.62546848452950   -2.19593765423650    0.65117135583479
O           1.65221961779866    0.13555712024626    0.01180168134987
O           3.39630471320322   -0.73546376151123    1.47786858304210
H           3.44721739650854    0.12613031513060    1.88006854236792
H           0.74692916041560   -0.78829794324373   -0.96374052463165
O           0.12655223476194   -1.38364385120342   -1.45017122655557
H           0.44288414665522   -2.25730488074651   -1.19603488397004
O          -1.20024675811858    0.82166157286332   -2.44770345775505
H          -0.95744594723740    1.12657079465492   -3.32299675132158
H          -0.70195790889408    0.00154028235311   -2.29278733544454
O          -2.25157831450058   -0.88674283728829   -0.26724492873420
H          -2.59010883853608   -0.28827132147199   -0.94073080155908
H          -1.42122760041670   -1.24647026492790   -0.64983508068622
O          -0.05826683796597    2.15723875790981   -0.30241542043530
H          -0.52688436325914    1.85554196142004   -1.10223652046677
H           0.72845863133516    1.57764226782138   -0.24291055804399
N          -1.11292692135994    0.66298632014395    1.58330898687175
H          -1.66556104619521   -0.01688241008763    1.00072370531098
H          -0.22686916813434    0.17601237091130    1.93931088871136
H          -0.78033012898416    1.42807383153954    0.92151177676737
H          -1.65835470809696    1.02726857949095    2.35606893382207
