    23
        -45.37269747  Gyration_radius:  2.37721214581 Dipole_moment: 3.526
 S          -0.41758530633785    1.91188817556882   -0.41264527887913
O           0.24573537512573    1.07234703397206   -1.40248615938075
O          -1.84932806907429    1.74604417918430   -0.40065408116697
O           0.20905852958299    1.76156235629284    0.89657943434183
O          -0.14104433078322    3.41731131065829   -0.83812466325902
H          -0.82906937114802    3.57295376371117   -1.47745938682806
H          -0.15865976700919    0.39671595760137    1.70584089021039
O          -0.22822194440162   -0.53327250612040    2.03719111419433
H           0.20416358834368   -0.53912168459016    2.89312473280715
O          -2.15109868220874   -0.89283746613247   -0.05819412220050
H          -1.81235440908642   -0.92338802095985    0.84336151960828
H          -2.16220255909577    0.05554329350942   -0.29291220058462
O          -0.84191516294132   -2.81409586732154   -1.38149237807255
H          -1.43736819180711   -2.10566051233969   -1.04421387696527
H          -1.26890862879535   -3.64485960433276   -1.16952957246516
O           2.68957219367362    0.70823973195316    0.62437939203163
H           1.82964235557690    1.15634044267105    0.74243275283275
H           3.30423152990992    1.39835170050030    0.37345185726055
N           0.98249798106268   -1.18003727215007   -0.33005465872161
H           0.70075153723989   -0.28416768144395   -0.84195351103585
H           1.99919454951888   -1.19916259996755   -0.28422076492181
H           0.59525080044510   -1.09602806158904    0.63296651566016
H           0.53765796220198   -1.98466665863895   -0.81538755443219
