    23
        -45.35100301  Gyration_radius:  2.39778185151 Dipole_moment: 3.146
 S           1.55466746256860    1.09750480832950   -0.16490843863013
O           1.34741884549606    0.25833816635032    0.98236124545945
O           2.59161945591564    0.74067084301290   -1.05877822031941
O           0.21444572567646    1.23096812204773   -0.92870310581088
O           1.81387972180368    2.56215621759193    0.33663957266682
H           1.08535155012691    2.84720933216812    0.89816927723120
H          -0.40900545942419    1.51836364000844   -0.19500667857562
O          -1.01475940746041   -1.29291688156635    0.93718967382610
H          -0.14872566523720   -0.90892352826297    1.12372366885384
O          -0.79550865067181    1.95715083773860    1.29587923630829
H          -0.27776843932224    1.32986787263992    1.81678827399526
H          -1.72271056722573    1.59519887639014    1.34102130828916
O          -2.94039880604585    0.48584084786177    1.25615161785351
H          -2.32533301757891   -0.29024035540642    1.21334058529390
H          -3.53625252509980    0.39828938585904    0.51119427512281
O           2.24708439337963   -1.99067798514825   -0.79701890817300
H           2.19674961839759   -1.97467996756590    0.16149082543914
H           2.57776466893654   -1.12079981158257   -1.05688906833080
N          -0.52152689426218   -1.71856499404822   -1.68058661441025
H          -0.93374589244880   -2.35249889035613   -2.35365683971717
H           0.44260220745580   -2.01485188461216   -1.52624372735620
H          -0.47997791878052   -0.79697273785553   -2.09974203779944
H          -0.96587040617329   -1.56043190371211   -0.01241593126670
