    23
        -45.35280470  Gyration_radius:  2.58689018207 Dipole_moment: 2.718
 S          -0.22820873595200    1.87686049679726   -0.08451993863436
O          -1.34977978699487    1.02154869598305    0.21312865358758
O          -0.25061037443063    3.17387775168402    0.50840996296584
O           1.06804136471209    1.12422783326511    0.34531599359862
O          -0.04594315545480    1.98937691571299   -1.60358753717806
H          -0.20032431786579    1.04547425972153   -1.94314362019027
H           0.82040067293687    0.50812279257862    1.10234565413363
O          -0.61526777464630   -0.46964921322283   -1.93624190129820
H          -1.36097598291610   -0.30582026617906   -1.34457300078001
O          -0.45241537726456   -3.27341306344837   -2.63577360535265
H          -0.59459706372632   -3.57122802398023   -3.53524067530759
H          -0.63878797489252   -2.32420677824051   -2.62524754080879
O          -0.04699411984864    2.34278746986385    3.09574745166339
H          -0.21403971081170    2.76338501047010    2.23423530980258
H           0.55861079932763    2.92198873366891    3.56263711413775
O          -0.03797775069577   -0.21778542871756    2.23059201312466
H          -0.02220452887291    0.53216207629228    2.85448212768015
H          -0.85564872414833   -0.08976830933784    1.72463458497622
N           0.96451265219644   -1.85170210393116   -0.34396308275781
H           0.67377345931581   -1.82620334953621    0.62566044085036
H           0.06561531876495   -0.93915038107768   -1.35204648240416
H           1.95363238267436   -1.64609286762655   -0.38306179354999
H           0.80918872858124   -2.78479227071846   -0.70979010826020
