    23
        -45.37442477  Gyration_radius:  2.36457252503 Dipole_moment: 3.466
 S           0.22873695332034   -0.78143469521459    0.48396732662447
O           0.74110758609857    0.32484975653758    1.31600653440827
O           1.21963009463124   -1.17165069443959   -0.49776862731550
O          -0.02680428731606   -2.00224830586396    1.39468392298839
O          -1.03959595228144   -0.39471147151567   -0.13758410395160
H          -0.72765475711890    0.72247444425166   -1.37501277084987
H          -0.74610857999125   -1.78511601356253    2.05683479730709
O          -0.25174181204906    1.26945474329260   -2.04034969079372
H           0.06983008497090    0.61230228206308   -2.69445697288717
O          -1.80682519912865    1.07450640916051    1.93206614763711
H          -0.87445237942861    1.23049186766511    2.13143863598290
H          -1.77392603049569    0.65379530830849    1.05103194813421
O           0.93012001011770   -0.86989748438947   -3.10778972157069
H           1.08796038440496   -1.08971513804947   -2.16232043208075
H           0.45092639676573   -1.61516108350458   -3.47250093655926
O          -1.98828747954055   -1.34361832232044    2.96156666102235
H          -2.79190096330003   -1.73637988655828    2.61409840281745
H          -2.03142813467610   -0.37813908388173    2.74028139983323
N           1.90273065811848    1.48989527826057   -0.64217838162843
H           2.37672750360482    2.38005025449488   -0.52750848970313
H           1.02116230875897    1.54365851329633   -1.29407031871522
H           2.52188423521379    0.77277277628494   -1.01647889199110
H           1.50790935909509    1.09382054537162    0.28604356135601
