    23
        -45.37854768  Gyration_radius:  2.32534630976 Dipole_moment: 3.370
 S           1.83065223729501    0.46434053194302   -0.47356531172159
O           1.81597328877475   -0.55217531273033    0.57540456413405
O           1.61712202407350   -0.08113150970515   -1.79272805228284
O           0.91352088145108    1.55114429034225   -0.15845926071691
O           3.29197841753367    1.06752649992167   -0.44950805564369
H           3.46096766866342    1.11924779558495    0.48578702251811
H          -0.69843454893364    1.33284046951791   -0.83091899572464
O          -2.10464717211319    0.02982366621433    1.37323742318590
H          -1.49754307558714    0.60828483639944    1.88561314873564
O          -0.55567015284467   -1.43900431505961   -2.13614508420700
H           0.29405124264327   -0.92803618948509   -2.07038200884052
H          -0.52802407284413   -1.89070686793467   -2.98082262627741
O          -0.17234046091718    1.66570422917025    2.25027808651016
H          -0.43971191088049    2.58229755090589    2.34033345970073
H           0.30024206849536    1.60975779137515    1.39026352144767
O          -1.58821688004593    0.99905536051085   -1.05006914469981
H          -2.16249236726458    0.46607704967304    0.49097347244904
H          -1.44686682627995    0.24371691417342   -1.63404125702926
N          -0.47059205446334   -1.80050440589796    0.56408738513604
H          -1.20625623567364   -1.10808522892194    0.97962665536154
H          -0.48907601809404   -2.69786286872448    1.03528443997034
H          -0.64974392610466   -1.89999288082182   -0.45031763152911
H           0.48510789321503   -1.34231741655179    0.65606824950618
