    23
        -45.37419239  Gyration_radius:  2.36550544664 Dipole_moment: 4.501
 S           0.26865274538157    0.83303448700320   -0.30663741990520
O           0.19676580166307   -0.15529841895089   -1.41137935749593
O          -1.03562559961660    1.42822698547152   -0.09690195948373
O           0.79374217625085    0.19734824048500    0.89353170061602
O           1.22686338785676    1.96040105509288   -0.75096206822022
H           2.13711004838070    1.57824024243114   -0.91350394213161
H          -0.36474396595428   -0.81643778467905    1.54679919405309
O          -1.23041707913178   -1.25051879254553    1.73746556111274
H          -1.75824647046844   -0.53258494545181    2.15001737754998
O           2.36410281615428   -1.46779403543307   -0.60273590308651
H           1.55888365578343   -1.16978714637116   -1.06837675267953
H           2.17646814640896   -1.25554956035614    0.32027439559864
O          -2.38885566973868    1.11171676221245    2.15330655009121
H          -2.06151278406702    1.72217702851344    2.81558602746267
H          -1.92115542414864    1.34609804613540    1.32039515145863
O           3.49476363511269    0.81407238550373   -1.28881033134677
H           3.25755221395749   -0.11139311736792   -1.02459399259736
H           3.61415934620710    0.80273140753961   -2.24083757778866
N          -2.10168323718522   -1.03230691259244   -0.67075825588897
H          -2.56300027286018   -1.80338939601523   -1.14292318547789
H          -1.17210125670992   -0.74727458821721   -1.13474368090297
H          -2.67845263487458   -0.19242243698883   -0.65423665563983
H          -1.81326957835154   -1.25928950548290    0.37002511467056
