    23
        -45.37617156  Gyration_radius:  2.42018650418 Dipole_moment: 2.520
 S           0.88686177504556    1.25341084190691    0.95100107451123
O          -0.50427096029689    1.49709120311176    0.58507947307595
O           1.23405286036231   -0.15222651380549    0.82124192419350
O           1.80111161202642    2.14937983825373    0.28129989809388
O           0.99946084242545    1.57079445694701    2.50276280117015
H           0.93153082143150    2.51976248517761    2.51927503027468
H           1.61880194591205    1.84951169278912   -1.33387344077183
O           1.54625976050013    1.57243236636520   -2.27560583019700
H           2.32360339208313    1.92901335144305   -2.70932121598718
O          -0.40168720315199   -1.77666389343448    2.08613055331200
H           0.14440474879176   -2.54859646459334    2.24522219319883
H           0.19344616782141   -1.11295456238315    1.66877427049133
O           1.04933993476377   -1.00131858966516   -1.72043087476681
H           1.32705867761309   -0.15846390166138   -2.13459467347468
H           1.30766947942212   -0.89724788949899   -0.78541607117870
O          -2.57143293892415   -1.93971699366784    0.57697023339393
H          -1.77390419446025   -1.97474836419006    1.16052255075368
H          -3.26556229594887   -1.55744519330309    1.11660963063122
N          -1.39361971582335   -0.24746499065253   -1.13248364558221
H          -0.48187601473732   -0.67630964154373   -1.48807986771984
H          -1.93955318051867   -0.95697071100181   -0.58399166546729
H          -1.09518322955659    0.51816033028795   -0.45552448041453
H          -1.93651227482141    0.14057116311376   -1.89556785754603
