    23
        -45.36215470  Gyration_radius:  2.32367389414 Dipole_moment: 3.506
 S           0.98297349398299    1.02585841248435    0.32504612827857
O          -0.18223959704622    0.55179040098717    1.05049023598478
O           2.19395108429498    0.99765528737405    1.07291250248321
O           1.11310259229765    0.16208685703487   -0.95976805278285
O           0.72178724218078    2.41524991838807   -0.23103740702905
H          -0.07205223199219    2.32903343918616   -0.89526326492981
H           0.76379384957791   -0.75308656858624   -0.73725179951788
O           0.14860052475388   -1.95876873431661    0.10963669048719
H          -0.26916852748295   -1.34075780617014    0.72839983716306
O          -1.26535151021832    2.00738550144690   -1.71825327446259
H          -1.98859476618110    1.94289255924167   -1.06720778240554
H          -1.17998401652030    1.09608319590934   -2.05676990848139
O          -2.69702800732945    1.07245831527846    0.39726602083224
H          -1.79567391096729    0.87590402349897    0.73136151859207
H          -3.17767484109268    1.46735346330039    1.12585493438677
O          -1.73505616820286   -0.68439861093140   -1.72794361702259
H          -1.21507843543840   -1.40755520565174   -1.36308239458797
H          -2.37357504460332   -0.43311046425201   -1.05066638396938
N           2.51728900903015   -1.89118491156193    1.31760912811498
H           1.01167488087626   -2.19274951957697    0.54524182518873
H           2.53842084704108   -0.87126018599790    1.33360318077626
H           2.62984123240824   -2.21121669142601    2.27204963996155
H           3.33004229063434   -2.19966268566268    0.79777223294016
