    23
        -45.37196986  Gyration_radius:  2.40146036448 Dipole_moment: 2.400
 S           1.98953193227005   -0.60397984591930   -0.19729728179826
O           1.05758596305625   -0.59657091806427    0.93609540277421
O           3.36682289482277   -0.68234889878792    0.16395878441012
O           1.65360651232042   -1.95203270334138   -0.99752123785418
O           1.63840267795136    0.46771915280006   -1.12670884295796
H           0.20041216208808   -0.07658964844582   -1.67411358031150
H           2.41078484954801   -2.49033376722651   -0.79486638656384
O          -0.74674395586335   -0.28614122954648   -1.85572629951242
H          -0.81888190780123   -0.40479537399613   -2.80342733136383
O          -2.72865953853823   -0.25111401271396    1.84145498361489
H          -2.71635418353698   -0.52248574634997    2.75995281328201
H          -2.31914075264672   -0.99231738064713    1.33204787782384
O           1.01819033191710    2.89156499567365   -0.13798516272217
H           1.32472485804450    2.07644424236555   -0.58562823329000
H           1.80933031699711    3.35494587072701    0.13837202047814
O          -1.23608880130859   -1.94817185726657    0.40694009460543
H          -1.26563230380079   -1.67569228576052   -0.52006263138903
H          -0.34723567755006   -1.68478854426543    0.70464301979063
N          -0.88111429475036    1.10744544450768    0.49357235115312
H          -1.67712790125633    0.90345621958333    1.13377589517109
H          -0.07455021549680    0.46396944459243    0.75582193698036
H          -1.14137738718014    0.83361116696838   -0.46561085642184
H          -0.51648555938369    2.06820568518312    0.49231266429316
