    23
        -45.37197245  Gyration_radius:  2.3935798091 Dipole_moment: 5.139
 S          -0.28270383657845   -1.50538013991085   -0.93974632354969
O          -1.72174895308632   -1.54129773599100   -0.79023263185247
O           0.16773209217042   -0.80390549660356   -2.13135813773662
O           0.33057109267405   -0.91616093954481    0.26862343620080
O           0.26203208312253   -2.96919765457871   -1.05417783814082
H          -0.09892449273959   -3.41578988145747   -0.26432500876515
H          -0.74772759005193    0.32753398335720    0.30080544050163
O          -1.35001176769510    1.09950611250916    0.18296269384195
H          -2.17071129614586    0.69745239576454   -0.11589011670827
O           2.14461865471094    1.05441692523716    0.51428504493676
H           1.68731829995171    1.58954275341481    1.19219869135485
H           1.68867025958106    0.18904030745709    0.52406512174025
O          -1.08921692541931   -3.17481370507819    1.23108101533458
H          -0.51347143843483   -2.50853977495788    1.62002600020507
H          -1.68421168111869   -2.68008021939928    0.64119406078222
O           0.28840268867449    2.36641217455864    2.02784967662967
H           0.09728814158097    2.08637780027115    2.92426461267906
H          -0.44588006324833    2.05326260676013    1.47608861574150
N           0.69454253890546    1.65083220858915   -1.54978886788330
H           1.44452243388114    1.53842363706369   -0.78004718663665
H           0.53985309550468    0.65778872248610   -1.93133133681786
H          -0.18675216024758    1.89144569354746   -1.07181182772830
H           0.94580880400426    2.31313024650261   -2.27473513413049
