    23
        -45.37065841  Gyration_radius:  2.36320032825 Dipole_moment: 3.387
 S           1.81700259639545    0.47500645350217    0.06203051612926
O           1.26613969209105   -0.85662495116925   -0.18855010414242
O           2.58397729836470    0.57691311228703    1.26611547390389
O           2.82955672985937    0.72998057435075   -1.14790277252229
O           0.77109836975857    1.48619115400768   -0.07795237945438
H           0.20776038576638    0.92736941622075   -1.57610704101181
H           3.61808670613485    1.04366121243430   -0.71621572807379
O          -0.03063040269261    0.38507306600379   -2.35450740743516
H           0.67472514315814   -0.26520050675321   -2.40797298246355
O          -2.35058543784875   -0.84020179822941   -1.89235563892726
H          -1.50613846772837   -0.40961122588918   -2.17538977321534
H          -3.05708774289729   -0.28948011560618   -2.23154351144118
O           0.74238654888990   -1.34816922926821    2.48304465877706
H           1.19842949735504   -0.70261347300356    3.02662155494581
H           1.20887603587180   -1.32209924131709    1.63785215995417
O          -1.34186776261136    1.51213281733909    1.46304018866179
H          -0.48092349693719    1.62158348695108    0.99644610897696
H          -1.90468218274768    2.22164006561404    1.14830957337046
N          -1.27661263582707   -1.00635618313366    0.54296095387877
H          -1.44177474276794   -0.08133326052244    1.00938350309808
H          -1.37621903372622   -1.75904214866245    1.21871190752655
H          -1.88165154753580   -1.10074333480005   -0.30317360047071
H          -0.26986556055830   -0.99807588030088    0.21715433990255
