    23
        -45.34906285  Gyration_radius:  2.34708653622 Dipole_moment: 2.603
 S           1.27233475874402    1.09403556644329   -0.99272267821774
O           1.17372444248077   -0.32571442675021   -0.83091734599520
O           0.21010270915829    1.77634882792153   -1.65234818726895
O           1.76309259615777    1.76793389152383    0.28805643745339
O           2.53326932535518    1.33964001090294   -1.93615680285410
H           3.24647876382932    0.77670197898823   -1.63933590208449
H           1.64811050752332    1.13688140697342    1.08401076357661
O          -0.29700849555368   -1.76081014130326    1.88623831294060
H           0.10431111571231   -2.59604364177442    2.13026724323680
O           1.51575493499753    0.21889519449516    2.30116582377409
H           0.96583830756608    0.77295784141723    2.86178725493112
H           0.93984065483806   -0.53676952276979    2.04048094744303
O          -2.29972960823089    0.84899733221702   -1.55002676977230
H          -1.39332885422121    1.14539127592744   -1.76271134706065
H          -2.87163529291477    1.58854334445227   -1.76420930588679
O          -0.75277120686452    0.94146628858089    0.80340355962423
H          -0.87588020563698    0.08868556910949    1.23408657545732
H          -1.42527782778999    0.97559568243809    0.10868497629131
N          -1.19766638784489   -1.90392254479700   -0.61916674297271
H          -1.31023293261804   -2.74238933354876   -1.17536044725557
H          -0.33499153964750   -1.44672100933700   -0.91323347359476
H          -1.94881770342283   -1.26916975317264   -0.86862379667063
H          -0.66551808023395   -1.89053382741162    0.96663089653745
