    23
        -45.37711266  Gyration_radius:  2.38537818073 Dipole_moment: 2.317
 S          -1.61748898124410    0.48883632333198    1.25826395942995
O          -1.37785778754916    1.86341054435368    0.87235646863849
O          -2.58463209527446   -0.17382564470660    0.39228908568838
O          -0.38557695350567   -0.27533289861767    1.39396104673100
O          -2.26265256286830    0.51579760871735    2.70746735913135
H          -3.09607494739668    0.95304797683258    2.56168852649444
H           0.96448638539226    0.55896350086627    1.03870880484652
O           1.76895997930494    1.04484640321232    0.72606661508370
H           1.96174760418015    1.69334107239199    1.40457154368597
O           0.06047467053777    1.66229166779097   -1.33317646520697
H          -0.56582705820644    1.92529755378250   -0.62326244706263
H           0.89626774247364    1.55077361364816   -0.85067759027555
O           0.55474220830218   -2.27113015597120   -0.21567295065241
H           0.24804259909614   -1.79465059075437    0.57547157120974
H           1.49511366084113   -2.02289286482569   -0.31500068505914
O           2.99135817881356   -1.08517637811296   -0.45844690772624
H           2.69610198050921   -0.30179172502067    0.04086972190746
H           3.36515997270525   -0.76250557132529   -1.27952273712007
N          -1.02578015977928   -0.72624720812161   -1.61716429139028
H          -1.78431047281357   -0.58527970718905   -0.88873263560410
H          -0.35510410329948   -1.44645413362965   -1.19929788140051
H          -1.41066866633106   -1.02472895522294   -2.50634034202120
H          -0.53648118390240    0.21340955857111   -1.68441978934381
