    23
        -45.35407485  Gyration_radius:  2.34488863831 Dipole_moment: 2.698
 S          -0.22911505674198    0.71009567580056   -1.68349076645563
O          -0.54123939543112    1.52625804278368   -0.54803416612011
O           1.07742658922468    0.12753733421474   -1.70787287169456
O          -1.28527958724565   -0.34699111880612   -1.90102225321668
O          -0.34873475673489    1.62638440810221   -2.96139344921910
H          -1.04305841170039    2.24859529504524   -2.75918308163861
H          -2.02856769048143   -0.37431467423559   -1.09272275902959
O           0.80122630994813   -1.90272745391551    0.11452941788557
H           0.86743757588047   -1.33504757717662   -0.66820847970770
O           0.20110012205341    0.90040074817461    2.02907463951872
H           1.12457934482298    0.69071344388795    1.80536798458997
H          -0.15399405341850    1.31915263966123    1.23033712123692
O          -1.29540336518243   -1.26347189149518    1.69844839810551
H          -0.62089224613297   -1.71018085682223    1.14866589654082
H          -0.83322139335195   -0.45529926603095    2.02716135983367
O          -2.91466856668475   -0.49577525186839   -0.07744542102170
H          -3.47070525324128   -1.25824145021564   -0.26002576799518
H          -2.30374589449053   -0.77114372325674    0.71720189349248
N           2.68892437887870    0.51453588480718    0.74981308762141
H           2.26533238363988    0.48731297128124   -0.17617190305353
H           1.51295990694590   -1.61963702942777    0.69667852687957
H           3.50988418128571   -0.07998115630583    0.72540022545926
H           3.01975487814163    1.46182497580981    0.89289235800956
