    23
        -45.36127917  Gyration_radius:  2.2817781328 Dipole_moment: 2.355
 S           0.08189841298370   -1.19105584297567    0.98309297499952
O           1.15629564437612   -0.96873405953714    0.04202356466184
O           0.44363654959454   -1.10007496552862    2.35621390064320
O          -1.05298073536396   -0.18431815822465    0.66757545166491
O          -0.57597115536147   -2.54637992886417    0.68459137138518
H          -1.03623213700152   -2.45905245906284   -0.20964693832935
H          -0.99602282491300    0.55030493860645    1.44655160143818
O          -0.58504117449302    1.41363309465225    2.48677858899938
H          -0.22321439569017    0.73895869773610    3.07677628487990
O          -0.40010971173078    1.73609449824875   -1.41188457837375
H          -0.87185021740763    1.21658521278345   -0.75152513965276
H          -0.05405910288579    1.09720820404547   -2.04685543794895
O          -1.68649783050451   -1.98234101215903   -1.55837190520681
H          -0.95525800968067   -1.55642876390061   -2.05984988622090
H          -2.29201076388595   -1.27901110166481   -1.30906950549906
O           0.50331073974354   -0.74680693171021   -2.47317476149529
H           1.14701889375455   -1.18167432082418   -3.03504756490731
H           0.84990955409077   -0.80708305189344   -1.54993682597780
N           1.41883161185768    1.88664963354504    0.88733812951536
H           1.70330075479794    0.92462617485296    0.72724187438201
H           0.96344878236650    2.20263161064890    0.03188605381233
H           0.21268545312399    1.78875448201304    1.98570242953823
H           2.24891163233899    2.44751404909704    1.02959032772644
