    23
        -45.35612710  Gyration_radius:  2.35555315403 Dipole_moment: 7.032
 S          -1.11750915451276   -0.38888418794429   -1.85401595439872
O          -0.81626733539091    0.98838413510281   -1.55470249119714
O          -1.55558456164757   -0.70032516280737   -3.16130659069046
O           0.15018544636351   -1.23037641712865   -1.49889753863278
O          -2.16255749346737   -0.91292029418396   -0.83522420095259
H          -1.84614154435030   -0.73560226685805    0.09323592147687
H           0.85120473580124   -0.64970683401926   -1.08109105419844
O          -1.31000367962900   -0.61953786739495    1.60610254118607
H          -1.89392589395220   -1.11747549813375    2.18111719376928
O           2.05731067025810    0.16507207336447   -0.43422973487686
H           2.78356165746646    0.19187716550440   -1.06024296223686
H           1.73633979142521    1.11612819309222   -0.35074551418232
O          -1.13878858270803    2.11412954726235    0.92499320390206
H          -1.28921679323996    1.82875095611972    0.00930556581836
H          -1.19203504042602    1.30539021150146    1.44780440579633
O           1.16088699559176    2.59456869218654   -0.40193760157638
H           0.48814005508892    2.62318397719106    0.30871761665384
H           0.63233258458894    2.50888402365711   -1.20478571512315
N           0.98374081747536   -1.89223171463440    1.40374542266936
H           1.59567472895340   -1.16931221180027    1.03601974178928
H           0.85066062844261   -2.56954204875829    0.66202444651163
H           1.45639178386666   -2.34771002102193    2.17415412536154
H          -0.42439981600063   -1.10274446030234    1.58995917312294
