    23
        -45.36955870  Gyration_radius:  2.42535033338 Dipole_moment: 3.408
 S          -1.39950671665989    0.07803422325323   -1.81562218400143
O          -0.26880980163827   -0.70679314235854   -2.26009181231297
O          -2.04928052912675    0.88398922577029   -2.79783014219034
O          -2.51645096844656   -0.97466529598553   -1.31134495911768
O          -1.02965838065211    0.80765722037016   -0.58318289769658
H          -0.78678463220596   -0.82507000260545    0.01444036669948
H          -3.25061642138792   -0.73979019678459   -1.86912381493582
O          -0.57952586184655   -1.59237427438953    0.57910895490632
H          -1.22448411321454   -2.25760508505662    0.33028810154755
O          -0.94930702770498    0.68745527792019    2.18954341976747
H          -0.86360273599796   -0.26504686724911    2.03892368275562
H          -1.20958718458859    1.03572293490616    1.32393306402199
O           1.79704819925237   -1.52184353629234   -0.82648437587806
H           1.22688036010317   -1.87302110488881   -0.12419534626258
H           1.16997252279673   -1.38118634064805   -1.56787460954594
O           1.57398956318649    1.45970876225267    2.39264646941111
H           0.60177397579302    1.27465188809407    2.44951912996383
H           1.99641326630923    0.88417664503397    3.03190654908777
N           1.57664780891594    1.02484098069657   -0.24195887225534
H           0.53720995424003    1.06345047596158   -0.43575782582154
H           2.07050885402157    1.68250877041085   -0.83476656696760
H           1.72151767091061    1.24053688116950    0.77726553268065
H           1.85565220803775    0.01466258043280   -0.45934188382819
