    23
        -45.38000658  Gyration_radius:  2.29035057203 Dipole_moment: 6.742
 S          -1.27055499318406   -0.53359381599933   -1.27406268380627
O          -0.76768290644660   -1.64287236536373   -0.45928394191131
O          -1.67339518780418    0.59746300087407   -0.47213605045727
O          -0.33072033978678   -0.20054714515898   -2.33083289816563
O          -2.57335772142436   -1.06972163898947   -1.99144569347456
H          -2.21955112202591   -1.63594718896337   -2.66950743711306
H           1.00417151768011    0.52758099830891   -1.85106263124754
O           1.83889215301025    0.90134129296920   -1.45977060040476
H           2.38199588345854    1.17290305571898   -2.20118215399891
O           0.25847072170202    2.27169312307287    0.45785291810956
H           0.93674861857045    2.07458532776296   -0.20134003959117
H          -0.55251871476061    1.85310500845787    0.12000275164715
O           0.59653037777071    0.55664286895327    2.46535043619121
H           0.49521817520180    1.37349698513194    1.92279327991486
H          -0.31124233119493    0.17799179501130    2.51241874074847
O          -1.76741668142243   -0.57512340503542    1.92518952583680
H          -1.92498961489822   -0.01185086463460    1.14467020246574
H          -1.60009346686142   -1.44420201480172    1.54745165939772
N           1.52501325773531   -0.89825343310651    0.56216071350147
H           0.63403066888809   -1.30152316814459    0.15251191845743
H           2.18611285593940   -1.62980678740375    0.79766741016694
H           1.91327915826787   -0.25011688402728   -0.14403840244142
H           1.22105970171916   -0.31324472457287    1.44659297611160
