    23
        -45.35901379  Gyration_radius:  2.32476178412 Dipole_moment: 6.603
 S          -0.62341250964622   -0.80873961712026   -2.17793803077804
O           0.03755320815934   -1.64287257787454   -1.19004938643627
O          -1.29244719589556   -1.48313956238982   -3.22456467060617
O          -1.59998298337679    0.11686848036572   -1.38119480505915
O           0.38120106527957    0.19442394500090   -2.75623331327200
H           0.79026563038376    0.73833280198149   -1.99453318763579
H          -1.70935708587869   -0.31009717485304   -0.46409782123866
O          -1.62587027776376   -1.01655680136092    0.89073247234453
H          -1.18254313063056   -1.79397565593079    0.53142708511007
O           2.05943935538657   -0.95497327785824    0.33251474516529
H           1.32148682802905   -1.30791201054105   -0.21876138084986
H           2.86128087289551   -1.34668632218742   -0.01756345929502
O           1.30890940308104    1.42204519527368   -0.73318049198761
H           0.54742471367045    1.77743900282106   -0.23568885327607
H           1.67958248685554    0.68134335912195   -0.21486872371884
O          -1.06535005893482    2.14766230162259    0.44136613044232
H          -1.47582279618476    1.61248431954903    1.12620903675626
H          -1.51933097914926    1.91796182144292   -0.37843375676814
N           0.28166002596740    0.09254480777362    2.41626971836506
H           1.08960452566870   -0.30823685071276    1.94706633257218
H           0.28211975090777   -0.24003068653096    3.37222091292238
H           0.40732071552334    1.09743034475409    2.43732593135363
H          -0.95373155434289   -0.58531585237645    1.49197552589336
