    23
        -45.36753871  Gyration_radius:  2.37084339352 Dipole_moment: 6.336
 S           1.47214195073297    1.03307697547075   -1.06871633884378
O           0.26543445246956    1.24530872425191   -0.28906769243459
O           1.36007910034855    1.51538627968842   -2.42640805662792
O           2.62384804984378    1.90542715664286   -0.38354717353636
O           1.92384468118770   -0.34916765781575   -0.95644144501527
H           1.34242704611228   -1.04940503500542    0.30598797312461
H           2.57670345942028    2.74475280098840   -0.83251593587583
O           0.88214618883281   -1.58712605120575    1.01943334208621
H           1.38134869313837   -2.40313080708586    1.08261552913785
O          -0.01333676247423    0.84590253247951    2.27840959821694
H           0.40342365999813   -0.02332219069842    2.29247266358371
H           0.15636425752727    1.16752524632140    1.36412486307815
O          -0.37132972420440   -0.45329172101079   -2.55035553794279
H           0.08335234157115    0.41094408308757   -2.63444128766226
H           0.36032776218509   -1.07827484820674   -2.53203092121586
O          -2.55395866584426    0.46248897878337    1.71751950777506
H          -1.64941956560545    0.75667981516039    2.00829492149619
H          -2.99038935180052    0.12068661783755    2.49894679155212
N          -1.47091522107031   -1.06424994782496   -0.18288910121300
H          -1.98270589201612   -0.38279498641386    0.43798386321912
H          -2.06564385145950   -1.85070641700296   -0.42510382568733
H          -1.12131898303984   -0.59565574441717   -1.06233019720824
H          -0.61242361586297   -1.37105380402554    0.33805844998899
