    23
        -45.37859071  Gyration_radius:  2.33491018965 Dipole_moment: 3.201
 S          -1.50998544035255    1.00224382038129    0.70787909492597
O          -0.37605120052052    1.80158184334433    0.23895242869048
O          -2.23046303765897    0.38298954838081   -0.38180313708266
O          -1.10628656684742    0.07403749018568    1.75312352494628
O          -2.52164872638954    2.01900301958637    1.38485321701661
H          -2.08844378139390    2.28525626701822    2.19051862285689
H          -1.09621496111965   -1.58280738511837    0.99644840143127
O          -1.27217958147465   -2.00955928851230    0.13871443061712
H          -1.89830441331470   -1.37225198712542   -0.25387265025328
O           2.83908384814745   -0.71924467443087    0.13298227355169
H           3.52582602469954   -0.14510887564373   -0.20962726819985
H           2.38093537819251   -0.19363466158399    0.84532460299435
O          -0.29701236393444    0.88183912435871   -2.20449788318716
H          -1.24360129071391    0.68925829386806   -2.17782410987474
H          -0.17523366481258    1.39879204683496   -1.37633605409252
O           1.48362125399567    0.77973060948746    1.79818327637488
H           0.98683372356672    1.35404410350733    1.18145543958947
H           0.77094049697186    0.26618196974858    2.20445019580364
N           0.77855553257839   -1.39809168533944   -1.40837637391885
H           0.41216774667085   -0.49074211604308   -1.83125991093436
H           0.00682431757633   -1.76372025162374   -0.76894851420511
H           0.99524226736300   -2.07716702743390   -2.12994855677432
H           1.63539443879514   -1.18263019385637   -0.83039104028543
