    23
        -45.35574579  Gyration_radius:  2.29185119158 Dipole_moment: 3.478
 S          -0.11768405691028   -1.88807262934045    0.40075747270144
O           0.16580229511862   -2.45370944739463    1.68374776459226
O          -0.35216874150954   -2.74066118811349   -0.70951403745233
O          -1.33053166580926   -0.91669625148239    0.54974144188146
O           1.04714845997901   -0.93297731631803    0.00404417261318
H           1.06345468665386   -0.13081375840753    0.61908359248181
H          -1.30798052370571   -0.59004912377842    1.50089743567186
O          -0.86883859218389    1.69265045009743   -0.59477187494419
H          -1.76115995995121    1.63313033630649   -0.24952359597624
O           2.10371420588253    1.62225101706396   -1.10591304695774
H           2.04364139967603    0.66716884323031   -1.20381209139251
H           1.25421437678372    1.97653662480707   -1.38592674600043
O          -0.76879635006820   -0.29027993734401    2.96751692304539
H          -0.08452125816436    0.37791286062568    2.82327902977668
H          -0.32616651179866   -1.15567775296426    2.97467307590219
O           0.89416956721203    1.25390298548101    1.33176780409323
H           0.17001208605392    1.53599290218657    0.71248449766039
H           1.68249696607554    1.68924430423648    0.97638344762380
N          -0.67900580232230   -0.34081167907094   -2.35025118173644
H          -0.59178815048314   -1.19856357786119   -1.80918219744157
H          -0.78676099963712    0.93143891257487   -1.23454243154061
H           0.08649651795034   -0.32758333659447   -3.01431899227078
H          -1.53574795885907   -0.41433323803892   -2.88662046234997
