    23
        -45.37549275  Gyration_radius:  2.39591574505 Dipole_moment: 1.152
 S           1.24271879168665    0.87237970888386   -1.09707264336926
O           0.09749298229973    1.61098136878555   -1.59817191919876
O           1.41055308977539    0.98668069357592    0.33514734406338
O           1.21219431879247   -0.51844086874163   -1.54506851337894
O           2.53319772057474    1.52114956367968   -1.75086628498048
H           2.39488948037223    1.42551303849865   -2.68899096002605
H          -0.44955105991528   -0.80010868325544   -1.56429007308264
O          -1.40853284003038   -0.77232781130996   -1.36001919539193
H          -1.72364965965702    0.02603133851009   -1.79359993303460
O           1.07726748277383   -2.43855215875371    0.32744462322667
H           0.63508577500046   -3.10434932272232   -0.20329524553252
H           1.25930455171242   -1.69777033504225   -0.28526209675293
O          -0.13120301969619   -1.91149795607632    2.67348615541274
H           0.55890572702732   -1.72425551272123    3.31183777698991
H           0.33367543343459   -2.20801091540998    1.85912710307589
O          -1.71029891558209    2.49486886720207    0.17872577985396
H          -1.05884252537893    2.22437295634081   -0.50204487706962
H          -1.69822327588835    3.45227231243277    0.18360550595947
N          -0.93778704166990    0.10847226611191    1.13218734996402
H           0.03012592847771    0.47904969067205    0.92878085878905
H          -0.86395528774632   -0.59449282621756    1.90011529512196
H          -1.53866305668402    0.91718011343819    1.31483969058823
H          -1.26470460966481   -0.34914552787958    0.24338428879026
