    23
        -45.37347593  Gyration_radius:  2.27850271576 Dipole_moment: 2.780
 S           1.46030104162992    0.03591015223435   -0.90266461792822
O           1.17762076818593    1.21131597103377   -0.10206331011648
O           1.60850190924853    0.24964785890607   -2.30885414696671
O           2.86854855186783   -0.50161321912952   -0.35705478847854
O           0.50469176680116   -1.04177025212231   -0.58960044793821
H           1.57187746090885    0.77935410316275    1.50207662705142
H           3.29265041776077   -0.86431236172586   -1.12907666964753
O           1.62729858651771    0.31994034985860    2.36512273067247
H           2.41086128457243   -0.22910394428326    2.30717984206655
O          -1.25471241687897    0.42324568054474   -2.02754415309798
H          -0.57647422449243   -0.14946063948670   -1.63241916435672
H          -0.81911728649859    0.82652041405385   -2.78211579390861
O          -2.27369729980248   -1.83621048731738   -0.28336508308622
H          -2.56910074571505   -1.18291562454770   -0.92403369432710
H          -1.38401191115898   -2.07615954759745   -0.56167908013210
O          -1.41037043617547    1.91728701726376    0.26528227046358
H          -1.65853472488564    1.53807869925526   -0.59729735622442
H          -0.45252312527149    2.06376797380631    0.18484122928454
N          -0.84622528659710   -0.30811366591545    1.55374593783278
H          -1.23349057468238    0.61791189720566    1.19441098046705
H          -0.33138154372278   -0.71358558191023    0.72242018489686
H          -0.12250356822790   -0.13592963704756    2.27171891915918
H          -1.59020867334142   -0.94380514625841    1.83096955431264
