    23
        -45.34299456  Gyration_radius:  2.66773848883 Dipole_moment: 2.668
 S           0.48935077383074   -1.68891204532748   -1.90447763355419
O           0.20917794229003   -2.91982184634624   -1.23601671401849
O          -0.56691402088149   -0.98722947337048   -2.54107764711544
O           1.24812930388657   -0.77030302210600   -0.92787774710806
O           1.60149756234163   -2.00572560962196   -2.99628529683587
H           2.04712012378097   -2.80247050885528   -2.71429216548061
H           1.11740409046591    0.22584029543864   -1.18864982085506
O           0.24039551284889   -0.18816778480136    1.81640663498991
H           1.00312437762062   -0.66523031528364    1.48219177630496
O           0.63677152094967    2.36593287120113    1.02510362518598
H           0.61819542733540    1.44967978577790    1.37893476905627
H          -0.19359391040205    2.74648879307365    1.33344084374210
O           0.98773316295649    1.67450446447344   -1.44623831943912
H           1.83355144727129    2.04541317620102   -1.70686276783430
H           0.79266634530694    2.03505151350992   -0.53030381081575
O          -1.56414639313989    1.89117774312356    2.76722843127182
H          -1.80115695154891    1.94710009708823    3.69359354847990
H          -1.06581137106229    1.07148613124152    2.65765961671488
N          -1.63617043011190   -1.10653386291003    0.15468792049425
H          -1.63730123273198   -0.57236560976928   -0.70749395392675
H          -2.59966581518649   -1.23883517759188    0.43871885182217
H          -1.24929736904376   -2.01424465786133   -0.08393930329694
H          -0.51106009678111   -0.49283495728752    1.23554917222629
