    23
        -45.37474109  Gyration_radius:  2.51184679791 Dipole_moment: 3.724
 S           0.91461673099589    0.04917096083552    1.09400503002802
O           0.24522586573102    1.27714165934407    0.66929888588425
O           2.10429016137220    0.27716790269550    1.86893012748649
O          -0.13899444584655   -0.70322187038856    2.02694510035172
O           1.08348893172782   -0.86478443238059   -0.03133355156675
H          -0.33284953875551   -1.71403100925867   -0.20263391869278
H          -0.01985491020855   -0.26200803675825    2.89253740968072
O          -1.28610543188835   -1.96415757330830   -0.21666674350657
H          -1.49600644677177   -2.13518372959832    0.70504349615517
O          -0.64021139346706    1.08041257789849   -3.24705600059451
H           0.16289919758993    0.52056931997034   -3.09992359363867
H          -0.31054445360327    1.97578536698510   -3.34342470924329
O           0.80303794613474    0.64053975114305    4.09256164235630
H           1.46351202586987    0.71752064414634    3.36913012590799
H           1.24097226872505    0.16704034195340    4.80358084985778
O           1.49553501345383   -0.32752418886238   -2.58885312317939
H           1.64195970883477   -1.20118535295372   -2.95616602931714
H           1.41964522163684   -0.45886241289162   -1.61848576999489
N          -1.70328792060889    0.59207472076982   -0.84956597447306
H          -1.40279464629514    0.79397269386032   -1.83992345122639
H          -0.91897180434416    0.95742526557188   -0.19908192164092
H          -2.59215340557606    1.03016404862427   -0.63566355622786
H          -1.73340869468584   -0.44802664739147   -0.69325434440296
