    23
        -45.36545458  Gyration_radius:  2.40504742689 Dipole_moment: 4.241
 S          -0.08698844905720    1.90999093128845   -0.17081951957861
O          -0.52040417597511    1.42059326021177   -1.46334055345411
O          -0.55680754160111    1.08273779216975    0.93340144107227
O           1.34376684831256    2.15069121879385   -0.11139400329917
O          -0.80049757425476    3.31754100104828    0.03611847590137
H          -0.55538112683528    3.78994463927626   -0.75311409206641
H           1.93936322390226    1.31907349902471    1.19287024419248
O           1.84188685820112    0.61530871819390    1.88052711739401
H           0.87735965495101    0.64411199476392    2.00814106304531
O          -1.71087200938520   -2.31456050440970   -0.83195298116377
H          -2.12697820950718   -1.59104216584129   -0.30510715768470
H          -2.30108445741560   -2.46143489855631   -1.57319469187504
O          -2.76270060437047   -0.26780149576029    0.50292359862477
H          -3.11388665003653   -0.35856696327587    1.39044266701598
H          -1.96909401439747    0.30927736153327    0.58853443303062
O           0.44793583308096   -0.98331555363144   -1.63480527437891
H           0.12048839394272   -0.04837256538929   -1.65020868400069
H          -0.34418583114495   -1.52624091125983   -1.39868388203606
N           2.07446897312995   -1.42192332243568    0.28247094234694
H           1.37380053938593   -1.19830424549566   -0.56347641953056
H           3.02087821824200   -1.49634194264018   -0.07569910200531
H           2.01322375168598   -0.59956238224560    0.99131460944389
H           1.79570836913688   -2.29180346536566    0.72505175899582
