    23
        -45.37140969  Gyration_radius:  2.31712687266 Dipole_moment: 2.490
 S           1.31671370802936    1.19294290366311   -0.37134960607883
O           0.56352609440721    1.15747404492362    0.87140039482251
O           1.30820826549312    2.46255222180496   -1.03692447017942
O           2.84818785305667    0.92463273631981    0.05159530821482
O           0.96589050002301    0.06205445651811   -1.23161043897384
H           0.40820107213115   -1.47009341885164   -1.07884676114899
H           3.32672951844889    1.66787277877248   -0.30485035789349
O          -0.06364714270228   -2.30900641127970   -0.86286372910433
H          -0.64922112742865   -2.47927981800947   -1.60258890764717
O          -2.96630123372360    0.55727732536684    0.37418811035410
H          -2.43781481963987    0.88137506972611   -0.39096761003332
H          -3.17294582772179    1.33781113431871    0.89136056420107
O          -1.28565793662780    1.46707906579147   -1.51766831308487
H          -0.85185837963011    2.32161394947654   -1.42500573525584
H          -0.54050856219134    0.84673638203701   -1.58849440670502
O           1.82745724338396   -1.46121341746816    1.32465249706701
H           1.79662126960590   -2.04208482258450    0.56032994357038
H           2.19795027623729   -0.62838637040329    1.01946912590845
N          -0.93814341240375   -0.92128555403723    1.28512904203713
H          -0.66960012998242   -1.62113148076786    0.55639993625600
H          -0.88687010756083   -1.33134026733156    2.21104504476953
H          -0.22992803743879   -0.12400692076935    1.20685372781535
H          -1.86698909363177   -0.49159358711287    1.05874664111283
