    23
        -45.36147654  Gyration_radius:  2.34051686317 Dipole_moment: 2.655
 S           1.12522652379737   -0.91646510232276    0.42868530307577
O           0.94456750123520   -0.42197597904957   -0.91261242178292
O           2.33321324957851   -0.50803343504633    1.06889706473465
O          -0.10428450144616   -0.46338529691895    1.28056323516853
O           0.98553913402416   -2.43244550365492    0.46883101060998
H           0.05977967547334   -2.68651743568719    0.09724892461681
H          -0.15185353739608    0.53746373886914    1.26915068756030
O          -0.18501609474913    2.12013597126060    1.16655566244566
H          -0.02697544382893    2.51729334274956    2.02554168454612
O          -1.51915255530471   -0.79106039554535   -1.88623514724419
H          -0.58496341237718   -0.55813341782272   -1.72892950306039
H          -2.03499768721724   -0.16058779358007   -1.34851945466846
O          -1.27136243970746   -2.97647357898162   -0.53340622316763
H          -1.47497923968668   -2.15910903017714   -1.08815844405401
H          -1.17956897527039   -3.70396269075991   -1.15256621355770
O          -2.51484646457727    0.81312277306485    0.09507844113959
H          -2.41320657193739    0.13783014924812    0.77149592181149
H          -1.86700912029583    1.49815232083300    0.30174674801526
N           2.08276399214875    2.08589388491496   -0.10756888493967
H           2.79182232157990    2.80237936747560   -0.20583916487037
H           2.48566098439961    1.29189953684560    0.38774233075269
H           0.67135080828086    2.23508080554149    0.63306371483009
H           1.84829186308615    1.73889776853102   -1.03076528197711
