    23
        -45.37169573  Gyration_radius:  2.44901469899 Dipole_moment: 3.789
 S          -0.32682569152304   -1.79633308998877    1.10977075094471
O           1.12243515047092   -1.70796715955592    0.95740388483781
O          -0.85433459916227   -1.02584326314476    2.20413086924613
O          -0.99684683265867   -1.47898323146064   -0.15471677459511
O          -0.62338642938574   -3.32453395692525    1.40815867661527
H           0.06967520500367   -3.75948025360232    0.92141251244160
H          -0.50754199907956   -0.51149434263288   -1.49271476852800
O          -0.27704369219729    0.30899793228902   -1.97952835769476
H          -1.05763016415025    0.86530094804295   -1.88793881595272
O           2.42157331219098    1.24914042158849   -2.36397245836253
H           1.54840609517659    0.89578856662545   -2.57802699049883
H           2.94505776588673    1.18877071807230   -3.16367459890497
O          -0.51283273853896    1.59476651720098    1.89322389347902
H          -1.25487528829622    1.63782549239889    1.26157774329772
H          -0.61163064684814    0.70253537326499    2.28433465338817
O          -2.36769444445794    0.79135779164487    0.05905931363921
H          -3.21007459177156    0.65608559056723    0.49535157353233
H          -1.93638985120566   -0.09205368133309    0.04080076865934
N           1.31128994228882    0.78082137235594    0.20160334978803
H           0.71542052787761    1.28104169661271    0.92987484492340
H           1.41130323197674   -0.22381168542010    0.52288059747198
H           0.78005445288610    0.74945537476353   -0.69515918049881
H           2.21189129247539    1.21861288049891    0.02614850168671
