    23
        -45.35271223  Gyration_radius:  2.60434140437 Dipole_moment: 5.229
 S           0.69834654145763    1.29400844344958   -0.52459757286678
O          -0.39169459006469    2.21906701995490   -0.47266167304624
O           2.01356278499160    1.85134426940788   -0.43176396859103
O           0.50589802416296    0.26079383785769    0.64325213444004
O           0.62523835843865    0.39798121739902   -1.75898899588701
H          -0.33129132539001    0.03230864473980   -1.84887998564466
H           0.12186562485521    0.82991248263441    1.40165018080799
O          -1.67615660128476   -0.60599058779632   -2.01454743344857
H          -1.92972274779214   -0.54093801211070   -2.93759802407751
O          -0.38720841096948    1.99859724549259    2.23939881390337
H          -0.81720641329519    2.42936275550235    1.48577483729875
H           0.45100311948675    2.49448671837515    2.36905179753716
O          -0.06891964905619   -2.42377386966119    1.10889727886702
H           0.25784641094055   -1.53809825692298    0.88950800690879
H          -0.61341221225049   -2.31614665529098    1.89094791983604
O           2.04537861274076    3.06623934781149    1.95652784417554
H           2.11888029533118    2.75429885962170    1.03278068423755
H           2.86136481369172    2.80970357941085    2.39045697312186
N          -1.09281448795766   -3.12008064647665   -1.49850005144342
H          -0.34373608774565   -3.47604413256917   -2.07904126389880
H          -1.82462170324352   -3.81873866032803   -1.46736868283197
H          -0.72096664867709   -3.01406323373239   -0.55278097917515
H          -1.50163369855411   -1.58423036636193   -1.82151784976473
