    23
        -45.35309344  Gyration_radius:  2.32289868278 Dipole_moment: 2.725
 S          -1.21214594484998    0.00981748244731    1.38462056912948
O          -0.16412847350307    0.18272863731268    2.34322914505127
O          -1.14670873701747    0.74441214978876    0.15608475012658
O          -1.65758944179520   -1.43680441888284    1.20382611030533
O          -2.51929058805846    0.58981107623360    2.10053787192598
H          -2.52520876977228    0.29208991007568    3.00893003642796
H          -1.47243407511849   -1.83427786003600    0.26008198089134
O           2.30805874969801    0.33495859376850   -1.41075804193818
H           3.24570776830310    0.42055359539242   -1.58657559397163
O          -1.44166411066941   -2.32200029220560   -1.15291202809281
H          -2.33171668540831   -2.25459722508327   -1.50688186922297
H          -0.90674352729111   -1.62533638463330   -1.62197659122038
O           0.77374222060900   -1.17542585033250    0.33986103166322
H           1.39072847801512   -0.79032193637129   -0.30713207595652
H           1.11986865861737   -0.98479367071408    1.21315409255801
O          -0.35081642078366   -0.20545388911268   -2.27781405345093
H           0.61057433274990   -0.11639236042879   -2.23213294821650
H          -0.68471588019518    0.29730986896098   -1.51667803307091
N           1.40646197924974    2.09027721565904    0.40752094776858
H           1.39921325766460    3.10204106482333    0.35773059207336
H           1.66035162730726    1.83095880849781    1.35412449842333
H           0.44619180396670    1.77013267231021    0.28888369595752
H           2.05226379829600    1.08031281256398   -0.80572410722653
