    23
        -45.36772507  Gyration_radius:  2.53799944556 Dipole_moment: 3.847
 S           0.22837399113116    1.87449452835535    1.66966142889030
O           0.39104987845689    2.50357381821200    0.35711700248203
O          -1.13614871442541    1.71118713443262    2.07690410692863
O           0.97817458070560    0.60912304591029    1.72435232207919
O           0.94548390415222    2.86420814378881    2.68562970435282
H           1.54712541468356    3.35394028857358    2.13197776157982
H           1.68295630631673   -0.26055079994091    0.51888894098046
O           1.94932070298617   -0.73803159453892   -0.30543322140343
H           2.89835307149006   -0.63681213892055   -0.38178666816266
O          -1.18995759492332   -0.82985148219697    1.22754144625106
H          -1.82503609408366   -0.24919800831212    1.66475145951734
H          -0.33381334327521   -0.51294982661764    1.58526030443826
O          -0.18847129339606   -2.56862822605542   -0.79044931562265
H          -0.69322262323723   -2.32683861630581   -0.00370837096713
H           0.69820761278391   -2.21210427187619   -0.64389785554606
O          -1.33464196084926   -1.21397174250821   -2.87003728095831
H          -1.82266193310835   -1.75885549825331   -3.48690123510315
H          -0.94797471400027   -1.82392712662611   -2.20740036969536
N          -0.38786527934590    0.46217388185347   -1.02015088256446
H          -0.19066536315795    1.43640018080043   -0.65163207698232
H          -0.89389567493395   -0.05610538471458   -0.26102324359842
H          -0.90527110833313    0.37855338063481   -1.90082952877158
H           0.53058024438253   -0.00582968572659   -1.11883442815611
