    23
        -45.37324289  Gyration_radius:  2.43631963441 Dipole_moment: 3.168
 S           0.57010719952691    0.58882252652524    0.26411034101600
O           0.05584555170410    0.40236071227078   -1.09384858603781
O          -0.52273238039465    0.49177741831895    1.24054990794779
O           1.62981871246269   -0.35034617779290    0.57647928623035
O           1.16952189968179    2.01427474919950    0.35910252513845
H           0.48780604769460    2.64283068523544   -0.00191677743054
H           0.40036197412299   -2.23415133784631    1.74541630871851
O          -0.48225576519312   -2.12379645940239    1.38087850962138
H          -0.63065866666733   -1.14936595632535    1.42468906805854
O          -2.58565364184470    1.94258246026943    0.53461757710433
H          -3.08201050428200    2.07397711227729    1.34467701108217
H          -1.85628517586496    1.32055554902438    0.76518982080773
O           2.57344810408470   -2.16505871498890   -1.06790427561499
H           2.34621044086827   -1.39640974110714   -0.49102897764291
H           3.27682511275431   -2.63465236861373   -0.61752201914128
O          -0.73461202022428    3.64750831985895   -0.36365268270594
H          -1.51499680768883    3.07508041545218   -0.18655385046125
H          -0.76868193717461    4.36494625359036    0.27308423849687
N          -0.08616638744196   -2.13942461127653   -1.24349914192096
H          -0.35846399582126   -2.31942560425620   -0.23883653198542
H          -0.70437320680440   -2.58396342102133   -1.91240736473732
H          -0.09358279567917   -1.05611431522362   -1.32389538479894
H           0.91052825217036   -2.41200747412161   -1.36772901181140
