    23
        -45.36179374  Gyration_radius:  2.31390495812 Dipole_moment: 6.217
 S          -1.58263387491734    1.28002274055791   -0.09169266602133
O          -0.32247530514614    1.99676445332579   -0.10385359174794
O          -2.70587033663614    1.95024451185545   -0.62459770631509
O          -1.36325645809042   -0.08092981116905   -0.78984206262003
O          -1.89310527600513    0.86485189245066    1.37149938341431
H          -1.17071929629783    0.26494707119326    1.70031192346143
H          -0.36850234327352   -0.25129774804710   -1.02605291496994
O          -0.09879455414744   -0.83968770997775    2.19174596563571
H          -0.40413796234939   -1.22488033444103    3.01501556825031
O           1.00040675168776    1.95482784436238   -2.45491260328796
H           1.68613300870228    2.62456711976571   -2.47668410504022
H           0.45660143491906    2.14333116609224   -1.66709073238590
O           1.07407314291514   -0.47967400203744   -1.33076140011199
H           1.52075792357062   -0.13601017066968   -0.51466940339395
H           1.18975669506117    0.23561332896294   -1.98765432355533
O           1.82085337045855    0.71661423540000    0.90419451255935
H           1.40944205770317    0.19770138234629    1.60690774213718
H           1.16229412632647    1.39346798946888    0.66348518135982
N          -0.28613861152457   -2.63394917105485    0.27206153327816
H           0.44711237879556   -2.38114978334461   -0.38242208373211
H          -1.16514837839246   -2.39330287738093   -0.17243449240220
H          -0.25786515059170   -3.63666175792016    0.40849255852268
H          -0.14878334273010   -1.56541038976860    1.48895370697090
