    23
        -45.36856007  Gyration_radius:  2.35185611426 Dipole_moment: 9.024
 S          -1.06567659634867   -1.38149482775274    0.32287786739338
O          -1.76253819232719   -0.09146554841250    0.20841352908442
O          -1.91705886264334   -2.47397234640529    0.64269047011331
O          -0.42399621509433   -1.62226174371672   -1.12321190367687
O           0.11487303951764   -1.23996511481416    1.18092863193692
H          -1.00408748739213    1.11364193725076   -0.41866413642155
H          -1.22324567349795   -1.63704482792955   -1.67681968291581
O          -0.54124054383222    1.93069394297358   -0.77335169619516
H          -1.00345165677383    2.66587743886643   -0.36588497833703
O          -2.82939647918171   -0.96769265766652   -2.04173074630023
H          -2.90112283107308   -0.19467245147970   -2.60680194334554
H          -2.74616394287538   -0.63457131357102   -1.12794330589650
O           2.19045517512303   -1.10168340829219   -0.38276119793324
H           1.47491284260867   -1.30408794211891    0.27115063568725
H           1.81802080096205   -1.40242644490849   -1.21674249800955
O           0.88205872325402    0.81171438381087    2.58363908527774
H           1.33639811316633    0.42447570129387    3.33384788075557
H           0.44485868294597    0.05097027623486    2.12239719060887
N           1.86011456254865    1.43741597774106    0.20463623839010
H           2.60177591078757    2.10940579941108    0.04559841433746
H           1.62514809490700    1.32863241086518    1.22651496593021
H           0.95264579101866    1.71748091404946   -0.27037324007122
H           2.11671676420330    0.46102985456790   -0.13840960040979
