    23
        -45.37623429  Gyration_radius:  2.39707594756 Dipole_moment: 1.839
 S           1.21430925229502    0.32128977269709   -1.40896554146413
O           1.22198769303386   -0.99265555899507   -0.77832843290579
O           0.03379536597446    0.56387760978848   -2.20047445583696
O           1.45953091446743    1.36909097367353   -0.42065443056149
O           2.44672214933847    0.34280138907445   -2.40491896641003
H           3.18538533679078    0.07711302961796   -1.86414344475234
H          -0.12544385931209    1.87644813817097   -0.10537213084115
O          -1.09500123498559    1.86815492905799    0.03902011233492
H          -1.47014343942860    1.94886494068770   -0.84238460361683
O          -2.10828847965033   -1.04984962306424   -2.00895043766019
H          -1.34381694524817   -0.45591665644643   -2.15806598548924
H          -2.26913991431560   -1.48449258562316   -2.84684806988568
O           1.31823804739098    0.76822692635087    2.18653308867420
H           1.01159425435285    1.61731973598207    2.51183972450290
H           1.46546280150746    0.89828395737581    1.22716245556835
O          -0.27053941152806   -1.26329783552566    2.95877699980020
H           0.28849620317522   -2.02553047529831    3.11682000283023
H           0.34178474822367   -0.51374132273926    2.78343347816645
N          -1.08581921374585   -0.79057712682969    0.46029658864947
H          -1.22162706242211    0.25140996780638    0.42778586869921
H          -1.03978910957246   -1.11853570609629    1.44900678832819
H          -1.80607009315491   -1.22634942463174   -0.12410857852807
H          -0.15162800307473   -0.98193506496772    0.00253998039439
