    23
        -45.38321396  Gyration_radius:  2.25835692726 Dipole_moment: 3.079
 S           1.64010279068417    0.61813596393022   -0.74409612270763
O           0.44904925176742    1.09154638810449   -1.44357798086616
O           1.90630196791657    1.34459830963989    0.47119158055696
O           1.59162486728194   -0.83011195950875   -0.55419266272074
O           2.86614581616039    0.88690091526594   -1.70712552844755
H           2.71854912789626    0.27425101446935   -2.41993500620065
H           0.35975296343681   -1.51284437984424   -1.66873204289543
O          -0.44203771983987   -1.27423472611130   -2.17023092189875
H          -0.34225735358200   -0.30533779355900   -2.23282153214664
O          -1.61270939012732    1.47155054087280    0.20852346867084
H          -0.89470575188011    1.51041383288748   -0.45865633458886
H          -1.16121400510884    1.54615804717095    1.06641232307411
O           0.12863686236270   -1.47587302599502    1.58584405204091
H           0.13452153075249   -0.64336364577768    2.08820034486835
H           0.79508130274066   -1.34915419178847    0.87757924611617
O           0.11906394314510    1.17484366920128    2.32751822898280
H           0.38648123561420    1.68995136433564    3.09019363110839
H           0.84232976945642    1.28458081374973    1.65633783134634
N          -1.93600904434011   -1.12217719053154    0.00806885654916
H          -2.00487714201569   -0.06017906340429    0.09367093793341
H          -1.51098859388020   -1.31767911881916   -0.94183173062973
H          -1.20586350563159   -1.41622513233433    0.72860175361392
H          -2.82697890276819   -1.58575064195950    0.13905759823825
