    23
        -45.36606608  Gyration_radius:  2.47381141121 Dipole_moment: 5.042
 S          -0.59470633048575    1.61146968109397    1.44148160178972
O          -0.39063210491814    1.83684955421449    0.00407133899502
O          -1.04789157885094    2.75514379860616    2.16347403525697
O          -1.83503812309475    0.56004544196186    1.49245421944283
O           0.52597713021054    0.88166293777920    2.00556807565562
H           1.04374155717405   -0.49722041928007    1.52158233925778
H          -2.50327262808677    1.15580454921462    1.81220668600905
O           1.36846339880785   -1.35761916125070    1.12053515088440
H           2.13724625692610   -1.60805678696101    1.63420421049548
O          -1.16343184401115   -1.98974452645862   -1.97557066011650
H          -1.36386431168400   -2.08670275269316   -1.01237456227472
H          -1.09762760531301   -2.87728419261168   -2.32929017002670
O           1.76978949773871    2.29414268442188   -1.65974206020497
H           2.08893819933561    3.18473128041889   -1.80720721034567
H           1.02282141150258    2.37044103328819   -1.04187126019044
O          -1.28750866395521   -2.07457147711411    0.67606213260638
H          -0.35275376359878   -2.05734050058623    0.93494873682945
H          -1.65219197828657   -1.23927122769200    0.99915225104144
N           0.67763378947113   -0.19147037953761   -1.21993075354000
H           1.33633020543879    0.29593457035054   -1.82893932074213
H           0.12748885062559    0.58053718764895   -0.72476315407224
H           0.02420522648079   -0.82384434371681   -1.72997826179202
H           1.16628339863605   -0.72363695107729   -0.47607337494450
