    23
        -45.38058047  Gyration_radius:  2.27285170256 Dipole_moment: 2.298
 S          -1.31267671346649    0.70372105726131   -0.11644861733466
O          -0.07925342194475    0.86743199848763   -0.89821231511967
O          -2.37215889363043    0.10196605303586   -0.87862935339635
O          -1.01692230168007   -0.03674998658255    1.11704563096682
O          -1.78054053178398    2.13621979481979    0.30926952535980
H          -0.97908359919285    2.57571577626262    0.63890308871774
H          -1.89937839337094   -1.24250392134217   -1.70861184289137
O          -1.38583100869148   -1.99311678319710   -2.09399673118747
H          -0.89940688045604   -1.61699156009896   -2.83067142076973
O           0.81764623650186    2.82123047351608    0.54519954806756
H           1.12988477039832    3.57802243666412    0.04573733383772
H           0.66064753627729    2.09552174133515   -0.10507238350041
O           1.47997855928229    0.48050745411771    2.01054689308905
H           0.53483596982143    0.28317571386074    1.86496854832987
H           1.55810946190099    1.43016762522293    1.86517370591641
O           2.03845273040997   -0.71397500346230   -0.31400135879083
H           2.12055072937848   -0.33205150808693    0.58947451166092
H           1.42353737424456   -0.10258647580938   -0.76110076678886
N          -0.00571872110613   -2.24981924163356    0.15602979679830
H          -0.51941301028687   -2.35547448610772   -0.75861658141926
H           0.96043455824240   -1.82480812505604   -0.04286149808008
H          -0.51250575803460   -1.48847398347854    0.68656021539989
H           0.03881129723771   -3.11712903950116    0.67931406110337
