    23
        -45.37879739  Gyration_radius:  2.326737005 Dipole_moment: 4.338
 S           1.17342292486738   -1.45618990242534    0.46483538641948
O           1.13752801846112   -0.50733775700918    1.57289264298742
O          -0.14140973215841   -1.72274867991054   -0.07852247857671
O           2.14034991266238   -1.05428181077314   -0.54212533039151
O           1.68623470060207   -2.82406884654303    1.07117603104590
H           2.53992894414382   -2.58014597129159    1.41313446207139
H           1.80511649573912    0.32910053564111   -1.24544045669758
O           1.53661264766398    1.21194583666970   -1.62020981044188
H           2.24391536936179    1.47363269093437   -2.21154837927356
O          -2.22426896499273    1.28785920260356    0.02372807259676
H          -2.41975896543182    0.51789575414106    0.60156342757777
H          -1.98648022004960    0.88694862099677   -0.84518371105215
O          -2.25591789186123   -1.02453818218134    1.36975021088870
H          -2.91352637365089   -1.69703874784801    1.18434729986860
H          -1.43327747453152   -1.32622439541334    0.92887422500676
O          -1.01102990434893    0.01493196499219   -1.97566225171523
H          -0.19219348399138    0.49914069723122   -2.14467456232514
H          -0.74881077927334   -0.74382614785795   -1.42366818379467
N           0.22018354257010    1.77023342940923    0.70321226842554
H          -0.84356548690856    1.65335765542921    0.47513797345673
H           0.73866579474008    1.84759246249014   -0.18805489535399
H           0.38914151856628    2.57023156386177    1.30256623598027
H           0.55913939779654    0.87353001685077    1.16387183328925
