    23
        -45.37549231  Gyration_radius:  2.39576829682 Dipole_moment: 1.117
 S           0.29495680068026    1.56256048329003   -0.98771529057644
O          -0.93757297282164    1.21550780768689   -1.67226393995078
O           0.13331822851309    1.68916257453092    0.44410131362681
O           1.37571108969062    0.64690498002878   -1.34790760940804
O           0.73082145508534    2.99243810962671   -1.51617442269435
H           0.84039078290000    2.87257582486660   -2.45524414002951
H           0.51115751202320   -0.78558364859814   -1.55752197843601
O          -0.15937273290574   -1.49688924938215   -1.47727985753319
H          -0.90576075970834   -1.18337212851802   -1.99620723281732
O          -3.00447831766209    0.35750211065139   -0.18934271805561
H          -2.29139774517005    0.69938766923626   -0.76875733257983
H          -3.70576184378778    1.00818383301025   -0.22963069744073
O           2.48398679676116   -0.81018587854246    0.61679910599162
H           2.12528974774857   -0.15628405274294   -0.01652806995498
H           2.77447752480377   -1.55055244554960    0.08020599107440
O           0.99691333281049   -1.50118832254530    2.75117953648968
H           1.21964500164913   -0.89488326937575    3.45943540844376
H           1.62731657992219   -1.30200396019743    2.02316711089766
N          -0.83757331679892   -0.69383428228817    0.99329871615237
H          -0.36492803165710   -1.14304434570533    1.80810702498175
H          -1.85757085216420   -0.61851267730413    1.04603679352525
H          -0.45854050211723    0.28655129025870    0.89043875114866
H          -0.59102779780871   -1.19444041242833    0.10180353712998
