    23
        -45.35952685  Gyration_radius:  2.28417917347 Dipole_moment: 4.854
 S           0.32402642346385    0.71660633895162   -1.49608788609708
O           1.75060594519589    0.68138626565540   -1.65433065584250
O          -0.43418145276507    1.48940830607806   -2.42064014180590
O          -0.22581752758044   -0.73232513083367   -1.54570009992496
O           0.01100954694946    1.18404711086791   -0.05446005511984
H           0.86583739455641    1.34779945628709    0.48183258065750
H          -0.05767463133460   -1.21099615529846   -0.67604970849382
O           0.05123087873526   -1.86513582202164    0.73256214930744
H          -0.28529089266970   -2.76313479940170    0.71043337366943
O           2.68755780756623   -0.92736100796763    0.31225296558864
H           1.89355321337847   -1.41963951560009    0.56149882013913
H           2.50826649444123   -0.52899100205734   -0.55863804012456
O           2.21417900401431    1.50200362310610    1.17093652325569
H           2.74221895623037    2.03812925186113    0.57362386341884
H           2.53739721602223    0.57067599248595    1.04664818289778
O          -2.68753870926971    0.63084410687768   -1.13615962366053
H          -2.96251469633209   -0.03408797060443   -1.77109128996848
H          -1.96035920771303    1.10837456769878   -1.56605788392037
N          -1.88657665032482   -0.33353884265528    1.50998958087663
H          -2.68575347980209   -0.65206802693618    2.04430185268511
H          -2.22363096204690    0.01684675154262    0.60977721747903
H          -1.48231450492289    0.46184485272294    1.98885857747077
H          -0.69423013581693   -1.28068834092718    1.13649968749472
