    23
        -45.35741924  Gyration_radius:  2.36450884236 Dipole_moment: 4.837
 S           1.29211404212776    0.21867439887416   -1.73458841106893
O           2.13524072598970    0.02889984168889   -2.86777287219245
O          -0.11356798960183    0.47896640447771   -2.02197420062154
O           1.40548842925190   -0.81179497843045   -0.69317634116535
O           1.82730730276720    1.55767899584489   -1.02308121090098
H           2.54399017988408    1.74929833697094   -1.61690901442124
H           0.31543339451202   -1.69775903384194   -0.29065970116028
O          -0.40006521981121   -1.55191398189238    2.49844561891822
H           0.27708708791986   -2.03593443050033    2.97400851332061
O          -0.51735525917985   -2.20785711212576    0.07420438684510
H          -1.32319497815718   -1.69092958473252   -0.32848186572016
H          -0.52138124246066   -2.01846943455855    1.10628461941171
O          -1.32316681195924    1.87874841008850   -0.12990256416332
H          -0.80021509671179    1.45878741037456   -0.84808687154635
H          -1.48388675968201    2.78000314548436   -0.41127701863603
O          -2.24582073442656   -0.69813497254933   -0.98029152627774
H          -2.42291075156300    0.03696993350710   -0.37785693145734
H          -1.59183696916423   -0.33301654026446   -1.61382732598736
N           0.64088104969471    0.66265125293852    1.65907620997389
H           1.15558834161715    0.31617162549295    0.85093578982553
H          -0.01171857165699   -0.62654892838934    2.28998212804169
H           1.26402552309520    1.25271458238394    2.19464645913686
H          -0.10203570244245    1.25279463922398    1.29030211985998
