    23
        -45.37057095  Gyration_radius:  2.41840939778 Dipole_moment: 4.982
 S          -0.25895539129429   -2.27569247457876    0.15739987103055
O           0.25728269849421   -1.60149660678295   -1.04927456737141
O           0.75686191373893   -2.43727998260555    1.14903206482081
O          -1.47376354163378   -1.60927320663407    0.62755040034177
O          -0.71773142822197   -3.72197554660550   -0.31864984370323
H          -1.48370003763887   -3.58689804729093   -0.87156769070758
H          -1.98035757298437   -0.48060939372373   -0.58921847136231
O          -0.94714041790177    2.24094039061542   -0.20417860599203
H          -1.60389382056175    2.92658616783985   -0.33217985546403
O          -0.29970518488149    0.45953731999200    1.85137830835336
H          -0.81142503862689   -0.33912592462810    1.61084846666896
H          -0.66427024067172    1.18498532625028    1.31684434342094
O          -1.78726500646341    0.07024684080748   -1.37561151541084
H          -1.27790688694580    1.44659672997469   -0.71643473490150
H          -0.99455072304209   -0.36855586010881   -1.72462783095470
O           1.72124733012574    2.49960288003830   -0.61766419132690
H           0.74305759274560    2.47149517513141   -0.55776383948295
H           2.00255068033695    3.25380401509151   -0.09737666531586
N           1.80196967556702   -0.01773610488934    0.34376895140555
H           1.31793606991374   -0.66354316442798   -0.34279744951138
H           2.02234829735077    0.90128087442024   -0.09610388714249
H           1.06843859410835    0.14254892068026    1.10548053562760
H           2.60897244850429   -0.49543834856567    0.73114621698370
