    23
        -45.37711605  Gyration_radius:  2.34830529114 Dipole_moment: 6.903
 S           0.46337431530509   -0.20834186470102    1.37696369170099
O           1.64016356140986   -0.31594230053284    0.52005040555159
O          -0.24014424149759    1.04863196491934    1.18957597137991
O          -0.42306425051168   -1.35502682446278    1.19022992266583
O           0.95858275758729   -0.22424093564665    2.86326284187852
H           1.39253594764615   -1.09702943297880    2.92176207945163
H          -1.79719327965183   -0.79974377690241    0.51885940676764
O          -2.48034110661700   -0.19400511415684    0.13321263211043
H          -2.41460197098167    0.58041542328291    0.70224804509357
O           1.09692620650286   -0.70538847230688   -1.97538808779662
H           1.30114055800295   -0.62778845166726   -1.00395432752358
H           1.83110566603669   -0.27275884288043   -2.41674135711867
O          -0.07043570565827    2.71499230141041   -0.80114110542454
H          -0.40512606534371    3.54662113001234   -0.46170438698476
H           0.00995691715220    2.11967368518376   -0.01323316616504
O           1.81690964299797   -2.59124980687706    2.03743759653398
H           2.27313937104013   -2.08897536812189    1.35026443743107
H           0.89826979641997   -2.63565109931695    1.73096102811978
N          -1.18872936015320    0.62401533207438   -2.00310921689457
H          -0.32113540921889    0.01854816811355   -2.08459842982562
H          -0.84996318324481    1.56918314660390   -1.70024253590978
H          -1.70572967077454    0.65709182477053   -2.87456693618063
H          -1.78564047644249    0.23696930415958   -1.20014851886258
