    23
        -45.36985558  Gyration_radius:  2.27174371806 Dipole_moment: 6.231
 S          -1.37215942712443   -0.69546846865416    0.27253903406623
O          -1.45614210699446   -0.53850568156338    1.73288526294791
O          -2.36769348072218   -1.53577150577024   -0.31372975854183
O          -1.61664787616120    0.75456438751907   -0.30626435836470
O           0.00473150884319   -1.06479495087435   -0.07903643050502
H           0.80953856835346   -0.38806728959050   -1.43367295331531
H          -0.79768230001936    1.28556262426857   -0.26883698751745
O           0.95128169968762    0.29105034622497   -2.12398039451185
H           0.13652533551238    0.20957362942979   -2.64886801625076
O          -1.51236558839491   -0.75937800552124   -2.78081680742885
H          -1.90005925986579   -0.96489099753080   -1.91175953145096
H          -1.55245914862726   -1.57662552011953   -3.28166459699374
O           0.71017439348717    2.09830608204756   -0.30398071420964
H           0.64886982903967    2.96950537152580   -0.69884428356555
H           0.93606009509542    1.46249361011641   -1.05653472755740
O           1.97384908820262   -1.47785234373783    1.60164492330839
H           1.78413550233728   -2.27746842542023    2.09547862399996
H           1.31596551389811   -1.45431712229290    0.86664656234157
N           0.67690122467504    0.76569252346732    2.14893662885753
H          -0.30013056931671    0.24905861036632    2.04860310365381
H           1.37656412232954   -0.01851521238277    2.09675220154669
H           0.80577757578507    1.37762543847344    1.32893631188945
H           0.74496527000483    1.28822287999547    3.01556690755832
