    23
        -45.35677500  Gyration_radius:  2.43242248488 Dipole_moment: 3.584
 S           0.62101771835395   -1.84406707382066   -0.99633089300802
O           0.70374120862151   -1.22183139510327    0.30821815413031
O           0.01052640715205   -3.12151510924499   -1.02902939537786
O          -0.11537806358616   -0.84195923813712   -1.94048495581354
O           2.01266896398501   -1.88639864432021   -1.64268776948177
H           2.29133973018642   -0.92809680048590   -1.73666604496304
H          -0.86735404683181   -0.35888244111365   -1.46128604029237
O          -1.93780719008110    0.43999518037563   -0.69589236976770
H          -2.80955287462400    0.22350813174032   -1.02995405909621
O           0.67124957007754    1.38994928652662    0.06079651232248
H           0.71560946953669    0.43200624162608    0.28649631181973
H          -0.21368282959282    1.51877328599416   -0.30113246207143
O          -0.03907793723688    1.82042510352524    2.72403810558944
H           0.72670233082586    1.73583921627790    3.29380294068027
H           0.30209534511134    1.85639572994111    1.81361464047965
O           2.36636484237695    0.65929602424215   -1.91517727585009
H           1.87258789890131    1.07797002534041   -1.17597608535942
H           1.85898216219749    0.83311961840185   -2.71203381903144
N          -1.67213370967574   -0.39225724856659    1.73228675969397
H          -0.88552417960314   -1.01707304295247    1.57574263690058
H          -1.90598503530380    0.12097059408508    0.28661108076110
H          -2.37805181927828   -0.88405145353695    2.26357208602654
H          -1.32833793145487    0.38788399919698    2.29147196181317
