    23
        -45.36540350  Gyration_radius:  2.36503350858 Dipole_moment: 6.044
 S           0.99973876834000    1.87771610896768    0.78771633383924
O           1.26563205650193    0.49929208202525    1.23709793961164
O           0.58072191062434    1.89213057637923   -0.59738713226142
O           0.11650567482257    2.57253986101088    1.68910117051992
O           2.40458489555786    2.62630181183587    0.83761258503889
H           2.49648543143796    2.87010197706473    1.75435282188327
H          -1.49352585425696    1.19000583887316    1.52217181119240
O          -1.29211448516794    0.30304963093234    1.19967837846414
H          -0.30118743756117    0.29624251046596    1.27027686738053
O           0.74159214275775   -0.06398594372596   -2.28351024298755
H           0.84720944921491    0.78500235163199   -1.78518083784581
H           1.20901697653538   -0.73286416422852   -1.72135932064047
O          -1.15498085968562   -2.42474451982837    0.60904831440795
H          -1.27475409463213   -1.58561471730682    1.08032276716423
H          -1.07869067104706   -3.10865353825958    1.27610316031689
O           1.47475398444619   -1.65680795607525   -0.32148736781895
H           0.66033487126786   -2.10337105688838   -0.05134256758809
H           1.57001175097016   -0.90121434505837    0.29446155703084
N          -1.59081704198887   -0.47237286078326   -1.37231352046388
H          -2.36081196668558   -0.11830516737355   -1.92818609577948
H          -0.58805866592139   -0.29873213060316   -1.88023949954054
H          -1.53259843735276    0.02092036296805   -0.44771213568332
H          -1.69904839818274   -1.46663671202479   -1.16922498623586
