    23
        -45.35245547  Gyration_radius:  2.52048056942 Dipole_moment: 4.765
 S          -2.14184911073861    0.65427374582118    1.26746979955813
O          -1.09343091923098    1.51637562276557    0.78072229337721
O          -3.09858901144932    1.22423137825301    2.13187623674645
O          -2.85437566318264    0.02013266336823    0.02877037576134
O          -1.46181953838051   -0.57185583186066    1.94870834422096
H          -1.00305221816897   -1.03506720967244    1.19350464471500
H          -2.17320966333531   -0.49463133614158   -0.44072979394029
O           1.67214750549084   -0.18144230814917   -0.70298505951075
H           1.79744876422263    0.10483302134221    0.22193084340866
O           1.49384971597914   -2.99585672744849   -1.03517049036153
H           2.20866373443726   -3.56103449301504   -1.32872479765465
H           1.83975486374825   -2.09092649241488   -1.02196510533515
O           1.27414409312055    0.71462649941963    1.82362834995338
H           0.99907808000872    0.18376650281238    2.57344793016765
H           0.46988289502266    1.15855079640471    1.49916994608728
O          -0.62162601991134   -1.36428340884041   -0.33670396285787
H          -0.36550536972369   -2.27483014478566   -0.53634706585234
H           0.22340457966850   -0.85130932907712   -0.52067444191817
N           0.52425034243452    2.07747070001477   -1.59586517347246
H           1.39158927647565    0.64021578379327   -1.17720733274767
H          -0.12535463027188    2.05746129440102   -0.81167367779392
H           1.06681479448582    2.92855698673127   -1.51548742310927
H          -0.02221649094340    2.14074228624301   -2.44569444951311
