    23
        -45.34715651  Gyration_radius:  2.42969698718 Dipole_moment: 5.742
 S          -1.41893432762995    1.11502646493635   -1.05669772163033
O          -2.21749249229767    0.00345597405907   -1.46905032191118
O          -1.16019641006503    1.26988220153825    0.33620087907442
O          -0.11435718639761    1.15526878255032   -1.86836759368989
O          -2.11489053569982    2.42885059958228   -1.56396227817066
H          -2.51007483488483    2.21717428630367   -2.40702740963939
H           0.40972822681710    0.28478699833974   -1.69847573884762
O           2.84712009769552    0.44537706966370    0.06788064419207
H           2.78355481948072    1.35959933246175   -0.21435904570430
O           1.22035270704249   -0.91209334607026   -1.36969355033001
H           1.92565775130650   -0.46077856719321   -0.78915123458271
H           1.68218697522222   -1.27669626758692   -2.12817406362778
O           0.14905876988565   -2.25209733144149    1.05053169735810
H          -0.80200989814398   -2.04718530504002    1.11213807369788
H           0.40807048121435   -2.04473595305464    0.14692704183460
O          -2.36929716936315   -1.14612094721291    1.00676305227650
H          -2.05702640379938   -0.26634284055673    1.24738432580513
H          -2.56129176923911   -1.07715823249670    0.06255190903807
N           1.13242473392216    0.26477639239731    2.01491683085169
H           0.34614215158767    0.81351264435549    1.67998917688369
H           1.26510181290313    0.46297650720770    2.99774739129983
H           0.86236493824878   -0.71812449111080    1.92287204288417
H           2.29380756217194    0.38064600830265    0.91905588282601
