    23
        -45.36975225  Gyration_radius:  2.32755385185 Dipole_moment: 4.299
 S          -1.15962278491492    1.03406180635942   -0.69004834328935
O          -2.15605176448587    1.23954895130121    0.34004038815729
O           0.10718425016749    1.68153127023608   -0.40366092149784
O          -1.00181616985936   -0.38305478110587   -1.01070993192117
O          -1.68618508160221    1.72663427969746   -2.01442387373100
H          -2.46380414495362    1.22209163046256   -2.22963956035177
H           0.55032161286520   -1.13723660110488   -1.20702186028166
O           1.72258376611185    0.11857457522692    0.97017065924531
H           1.19261030982006    0.84627666530447    0.57389618753101
O           1.67802397263450    1.09051526925535   -2.49970575256041
H           1.06257367767009    1.36580382209043   -1.79321209587404
H           2.15570199098308    1.87965825895152   -2.75980826518806
O          -2.05052781713601   -1.17240922550384    1.24815128398861
H          -2.31304385557588   -0.22725707048837    1.15772576322921
H          -1.71991485345736   -1.33909148801985    0.34557410679088
O           1.51104936866890   -1.31705058289293   -1.18740839966242
H           1.86429711805634   -0.69676420849864   -1.84356073712378
H           1.82474001497066   -0.51438901371632    0.20080832630109
N           0.17619056110250   -1.09659984790288    2.58962337012944
H           0.07311884471797   -0.57976026786253    3.45659522498182
H           0.53098608961949   -2.02878274990809    2.77783220786387
H          -0.78000145840533   -1.15885541695327    2.07953201629846
H           0.88158635303674   -0.55344527490249    1.89925020689163
