    23
        -45.37434830  Gyration_radius:  2.42100707642 Dipole_moment: 2.279
 S           0.50312849298369    0.72135904805638    0.16660588294934
O          -0.01260345490665    0.21095137246664   -1.10661077019038
O          -0.50951079156771    0.58573494234100    1.21979973497023
O           1.74316112832484    0.07198347778847    0.54327152692551
O           0.80728244890110    2.22988010981992   -0.01717376930710
H          -0.00985100955641    2.64255821913724   -0.40685570072991
H           2.56420368646492   -1.09175894842955   -0.29776010047094
O           2.84690670588710   -1.83079012933050   -0.89005940227079
H           3.27442366037721   -1.41022950398364   -1.63787797714328
O          -2.85756121821386    1.37890616159988    0.37952834558967
H          -3.37347071703142    1.52144989571353    1.17534089234178
H          -2.00242486867609    0.99067295775681    0.67980766271656
O          -1.43569820117967    3.29675763565396   -0.82126998373241
H          -2.06814676053226    2.59914182802514   -0.53544558284925
H          -1.61119817487417    4.06727569004733   -0.27636445733385
O           0.08763460106626   -1.89673964735906    1.82881122216514
H          -0.24183226196113   -0.97338727606459    1.72923403194713
H           1.00969501927806   -1.78804704925778    2.07966419199614
N           0.23843721284125   -2.30844226477842   -0.78237196860227
H          -0.32816799649323   -2.97953596390640   -1.28805689926391
H           0.01654489708193   -1.28099912706168   -1.04111525641115
H           0.09486838666467   -2.35022050137814    0.26509506529771
H           1.26417922353402   -2.40652093767862   -0.96619668891917
