    23
        -45.37489568  Gyration_radius:  2.40759965843 Dipole_moment: 1.765
 S          -0.41858559150578    1.04920997356381    1.55343175696896
O          -1.38547999189623    1.10368131478144    0.46633504962922
O          -0.41517294443231   -0.21345515037029    2.25160478904282
O           0.91083793405946    1.43725490262492    1.08640487426771
O          -0.87273459214327    2.15069531067900    2.59983376979605
H          -1.06311391297619    2.91335906028016    2.06048520035504
H           1.63701094481463   -0.07875692967961    0.85146346851782
O           1.73800613098757   -1.03187688865498    0.64511119457689
H           1.46288623249677   -1.47979437098306    1.45055196444549
O          -1.74214857442151   -2.29031731124336    1.17847080545835
H          -1.27563373833974   -1.56992506306622    1.65167002356505
H          -2.58694350935582   -2.38661551519737    1.61912885725448
O           1.30163062503735    1.71979515761072   -1.54332229929485
H           2.24381139146540    1.89807560582155   -1.54836039468653
H           1.05403584998118    1.67176598438848   -0.59690804143577
O           0.28743244553262   -0.13877717861812   -3.24109910825309
H           0.58830835343083    0.64001178481408   -2.72753415274392
H           1.04941739031123   -0.45047845503255   -3.73165972403337
N          -0.50997054010898   -1.00905260156920   -0.83226757603452
H          -0.93574235377031   -0.12363031527818   -0.44505226883747
H           0.42537880092218   -1.12024971137959   -0.36214226533934
H          -1.11416436970097   -1.78214311147373   -0.52778415697101
H          -0.37906599035541   -0.90877649201322   -1.85836174626379
