    23
        -45.37714007  Gyration_radius:  2.34342803435 Dipole_moment: 0.800
 S           1.53366667935005    0.93742804511349   -0.51422695441737
O           0.20027072775194    1.53091270015149   -0.66562125808044
O           1.51935433501834   -0.16075662754592    0.42829059740525
O           2.11782598443251    0.60165061321297   -1.79303807402368
O           2.44319121311947    2.06550915669561    0.12947588156254
H           2.63952920454896    2.63453138693781   -0.60869425209570
H           1.66823417664652   -1.02373818206233   -1.95337343172164
O           1.21030811970906   -1.86591653736372   -1.73665343791766
H           1.49808335589221   -2.05541344354713   -0.83793587080810
O          -1.63607933324699    1.57378497398945    1.35717402674244
H          -1.00205369986517    1.72473105753109    0.63395936594258
H          -1.11547452807115    1.19749916268659    2.07700684960965
O          -0.11981489313262   -0.62655694187207    2.43106259702235
H           0.50526581595029   -0.43289945498689    1.69656413550212
H           0.41403892486436   -0.97893337436572    3.14376786670551
O          -2.33931494300769   -0.94534092751827    0.83953939147606
H          -1.65755045204755   -1.22057402352798    1.47322948027027
H          -2.40616793100749    0.02186495632074    1.01267643883052
N          -1.11216083024052   -0.60794347120247   -1.44431814810361
H          -1.72060554551915   -0.56278065407255   -2.25497815816969
H          -0.30148902765335   -1.26480544235422   -1.61128931810663
H          -0.67643836143057    0.33205201315211   -1.24371993137945
H          -1.66261901204258   -0.87430499538866   -0.55889779627601
