    23
        -45.34566567  Gyration_radius:  2.73839683395 Dipole_moment: 4.650
 S           1.60311466086482    1.31370243298791   -1.48003980827963
O           2.09322396688983    0.04265752925965   -1.91053135988176
O           0.19160982920604    1.51027719624317   -1.46009318446921
O           2.22109606120811    1.69439017844033   -0.12445023304638
O           2.23964970465530    2.40832359353394   -2.41354833846582
H           3.11551213214965    2.09307011097105   -2.62498339660710
H           1.61934554573427    1.44692655531529    0.68114562211071
O          -1.99284108332927   -1.01015834874698   -0.14774897816725
H          -2.15219899050049   -0.96771426387583   -1.09230998150592
O          -2.62845858630354   -3.50739997849146    0.96468582641980
H          -3.23903718106353   -3.36446358407411    1.68898759580006
H          -2.46442267561513   -2.63259884178051    0.57637448163739
O          -1.50688869488226    1.50747658589757    0.65910082895608
H          -1.87998258068644    0.61259817990203    0.50605865852200
H          -1.09555939806256    1.73673706980399   -0.18963457192041
O           0.74118977373958    1.12806211996079    1.82705599891202
H          -0.19463866849735    1.25344404945784    1.44536290691831
H           0.84501111558049    1.79680809141785    2.50775423897759
N           0.60948542261541   -1.42822158510618    0.12220717159341
H          -1.01194907134184   -1.19983281784979   -0.04496992766318
H           1.13372097180657   -1.06350846287527   -0.66747238674151
H           0.93166918913962   -0.95695145366077    0.95872600680445
H           0.82134854671838   -2.41362435674961    0.21832282009641
