    23
        -45.37879724  Gyration_radius:  2.32674217323 Dipole_moment: 4.327
 S          -1.01784290791803   -1.50039513014195    0.65350103328987
O          -1.44995885501001   -1.19572796166823   -0.70662020295911
O           0.42241477236647   -1.47412205556217    0.79567637899903
O          -1.70572001593157   -0.66729468319927    1.62453219984343
O          -1.46161719140844   -2.99257255533693    0.93356369905025
H          -2.40375980014214   -2.94472136401590    0.80985074804389
H          -1.40023625945907    0.88389605619824    1.47615700927449
O          -1.17508423255570    1.83829786081061    1.30202324980960
H          -1.71172212513639    2.35070815379377    1.90858416120356
O           1.52085588848427    0.95680918469426    1.30390080004195
H           0.71972282907115    1.46300958129459    1.49264459798855
H           1.23237338210984    0.02676641962819    1.27335621189815
O           1.89865945575046   -1.55523661018900   -1.41050566277950
H           2.67805314300385   -2.05718551644679   -1.16642169417966
H           1.29388023800282   -1.60876903601217   -0.64003705838270
O           1.89518747355375    1.11890512345148   -1.32715317865137
H           1.98251722393572    1.18218644402729   -0.34697675832913
H           2.03381520410609    0.16615737795421   -1.52261155657523
N          -0.68498210504142    1.22010762516768   -1.31031119045785
H           0.40441892690457    1.22525769522191   -1.41561822847416
H          -1.14107752071206    1.63736851035357   -2.11383108373090
H          -0.99903265452740    0.21263922136987   -1.17781728459169
H          -0.93086486945815    1.71391564860106   -0.43588622032160
