    23
        -45.37545170  Gyration_radius:  2.3958403732 Dipole_moment: 4.167
 S           1.18685588279829    0.04868758117828    1.72591668224823
O           2.18484437911539    0.82534319095394    0.99423262269997
O          -0.16278406974615    0.50552271397671    1.46977239054568
O           1.35999368700604   -1.37665450665869    1.49775619690418
O           1.46181612210988    0.29957542530461    3.26378604304586
H           2.33856644125505   -0.05157883646517    3.38655637544244
H           1.01928922505594   -1.73296682351125   -0.00649202933588
O           0.77335439237070   -1.86033921717777   -0.96417419769083
H           1.20506683135365   -2.66942764336490   -1.24284537076927
O          -1.00021117083516    2.02805641169985   -0.61123444094862
H          -1.78280519249188    1.52712227207449   -0.94420883734173
H          -0.84150683457299    1.69221430082280    0.29014490044226
O          -2.96157344796937    0.37396839959349   -1.31655022150107
H          -2.58176248248291   -0.35043612339714   -0.75922923232970
H          -3.83826887264783    0.54255847446030   -0.96896880271823
O          -1.73216933894488   -1.34470067467065    0.28127140993858
H          -1.24561280111268   -0.73065872555341    0.86332424590143
H          -1.04932804717005   -1.78209815197884   -0.24297055760666
N           1.14513171999552    0.81108829934096   -1.38082982039067
H           1.68624907718745    0.90082123797035   -0.46611193812699
H           0.94071009284356   -0.19832560615589   -1.49332534084596
H           0.22441489456725    1.36424487178305   -1.20860721720755
H           1.66972949233675    1.17798310973200   -2.16721288031699
