    23
        -45.35287597  Gyration_radius:  2.34265783469 Dipole_moment: 5.868
 S          -0.53963361830875    1.59565297908478   -1.17782149992979
O          -0.07905967809317    2.08492194500133    0.09452733491327
O           0.42406896671190    1.18745570124039   -2.13086554021257
O          -1.55799459327674    0.47306891063541   -0.94044858480483
O          -1.41005080810106    2.74391226377513   -1.81521330765423
H          -1.72728118450142    3.28957699704213   -1.09917997255940
H          -1.77398571761355    0.45957410178449    0.08822428724183
O          -0.17880190167654   -1.50394672416285    1.82934714216566
H           0.07555340307040   -2.05441306223661    2.57038143359590
O          -1.76925349771294    0.56071063180315    1.53302550712672
H          -1.10344067066039    1.26355529298524    1.56278407221880
H          -1.29181646681957   -0.27273294738437    1.77941169318448
O          -0.55263413667334   -2.24724990629057   -0.86224091440598
H          -1.08952103192664   -1.50319925314885   -1.15172431292874
H          -0.48248417204162   -2.16635773828579    0.10159338844932
O           1.88339768291088   -1.18013821400355   -1.61484527840723
H           1.54292104216330   -0.39312437863661   -2.05806033708944
H           1.11059780454791   -1.75952217964171   -1.48490805555006
N           1.79203926225661   -0.05213734919004    0.96402961182026
H           2.02802997096005   -0.50276396709075    0.07093429920451
H           0.65066167654318   -0.98013543426071    1.54221340279343
H           2.65585713863518    0.10498404795024    1.46715138189528
H           1.39283054960392    0.85230825303494    0.73168426886801
