    23
        -45.38087147  Gyration_radius:  2.27635163451 Dipole_moment: 2.892
 S          -0.28779695930921    1.21165904286894   -1.20505478049119
O          -0.49247942563183    1.74364162654862    0.13129446785528
O           0.99648977193070    0.55270541573525   -1.36687171187432
O          -1.39911966557617    0.36986782487430   -1.62192754400941
O          -0.25269626639890    2.45203228654381   -2.18811117706283
H          -1.07126625090595    2.89960554192345   -2.00141197047167
H          -2.28667709695497    0.08573761455235   -0.25227366296063
O          -2.55778474116788   -0.00460701231936    0.69107285847887
H          -2.25575581080730    0.82208025243728    1.08418998712867
O           3.06366756359112    0.36301908169538    0.31074535070636
H           2.39329833061278    0.54592222998366   -0.37733163038959
H           3.60489429954627   -0.35118456282903   -0.02910791025643
O           0.12374831927393   -1.91948833291028   -1.27760447535878
H          -0.70444981493100   -1.76100528019325   -1.74370949315367
H           0.60252237624984   -1.06826098520133   -1.38700760120841
O           0.93299283296114    0.43195431863329    1.96285123522747
H           1.82852478220282    0.40632110532707    1.57312934028893
H           0.43859074555418    1.05744408742500    1.39110295530224
N          -0.53469033961401   -1.60227132252899    1.27977045714549
H          -0.21936516827479   -1.88463252534912    0.31152531705650
H          -0.61443814545077   -2.39817890313567    1.90200055793676
H           0.14932634000039   -0.85765356937035    1.65465079717064
H          -1.45753565683467   -1.09470794474357    1.15807864293906
