    23
        -45.37323818  Gyration_radius:  2.35032602687 Dipole_moment: 2.856
 S           1.22515715872395    1.32432061551295    0.55716163580552
O           1.98843835544620    0.50738441761312   -0.36318548729028
O          -0.00936253370782    1.84743379333650    0.00124804268580
O           1.00367656533675    0.65463621061628    1.83977081520960
O           2.11622700726749    2.60005922313699    0.87330659009651
H           2.98219418984084    2.25785223384891    1.07810005773110
H           1.16290002418358   -1.05852764216237    1.40599640902763
O           1.13133220315513   -1.82738831134276    0.81087794837729
H           1.61749007342323   -1.52228817380061    0.03639582288595
O          -1.41277733113231   -1.23275415982839   -2.20381260061018
H          -0.76363887128729   -0.49943173830078   -2.33504133703186
H          -1.23204678975978   -1.87287481172011   -2.89305205422407
O           0.36927032579738    0.72837998527558   -2.46379068918835
H           1.10373813198230    0.54060721022205   -1.84929237276689
H          -0.07146135898644    1.47855239093804   -2.04878498613438
O          -1.50250712751697   -1.92902339789781    0.36076967368597
H          -0.54899661874746   -2.10507919870745    0.53346713109484
H          -1.56064695324082   -1.74625396325744   -0.60525292436473
N          -1.56503890090703    0.37826183031663    1.47413572025585
H          -0.68697508462785    0.37632660855937    2.03417038382202
H          -1.66032984352471   -0.62382800581619    1.01399808600282
H          -2.38032238693703    0.65494121941851    2.00958777311504
H          -1.30632023486562    1.06869366409978    0.73322636183533
