    23
        -45.37060102  Gyration_radius:  2.45405541762 Dipole_moment: 2.798
 S          -1.28458640564885   -1.30492357744840    1.09892321219599
O          -0.68547055278353   -2.27262824652273    0.20166015475444
O          -0.34851869434718   -0.72159122198390    2.04203066517534
O          -2.03278826148007   -0.27341269969162    0.37956216703105
O          -2.34058292543447   -2.11517585176830    1.96869461320937
H          -2.60140851734370   -2.81469278968280    1.37789105097678
H          -1.43814376088489    1.20713298641364    0.90385085564935
O          -0.80485744452102    1.86634949588344    1.26987435348548
H          -0.51716064106358    1.44302796155250    2.08711558994320
O           2.18450882650133   -0.54464180974526    1.38882904676124
H           2.68271878750833   -0.50703460934100    2.20633231235467
H           1.25338788658429   -0.74862218090671    1.64618785288457
O          -0.50380697886918   -0.56608751220967   -1.74939504944634
H          -1.31441073328996   -0.23729301063283   -1.32136265074756
H          -0.37197187008913   -1.40650890289414   -1.25987816763035
O           1.10352216280444    1.37509126904066   -3.16181989091127
H           1.11660401882308    1.51776388090023   -4.10883008687275
H           0.49907782126694    0.63766768559263   -3.00153879925870
N           1.10670501409070    1.11642735154639   -0.39547603725118
H           0.40836389293670    1.60993390266577    0.23330609539592
H           1.76829094214918    0.58526622944779    0.20891223109996
H           0.55271822398230    0.41646274720916   -0.95729722758384
H           1.56780918932031    1.73748891261418   -1.05757227121874
