    23
        -45.35637897  Gyration_radius:  2.39870915307 Dipole_moment: 7.592
 S           0.37636271856024    2.01535490623766    1.28696055239423
O          -0.89788769312188    1.33828690602302    1.17585639136864
O           0.47325383872815    3.04794822899987    2.24610320048656
O           1.46528988525899    0.94591513095352    1.58106170416078
O           0.76840840184955    2.51119455221973   -0.13420816824220
H           0.02359284962268    2.22703258268490   -0.76716241912722
H           1.75402371241203    0.52654955291477    0.71357651051539
O          -0.08007012285465   -0.89519290573838   -1.94427715437041
H          -0.01506676120633   -1.36771802797221   -2.77521961625337
O          -1.17187368095595    1.53713258176506   -1.44979794020224
H          -0.85236216633771    0.66429882653195   -1.75423018007473
H          -1.56681684258051    1.38102289858735   -0.57671065168629
O          -0.48032216799645   -1.11793945185335    2.20664892683935
H           0.41254955098532   -0.98062785105247    2.53176445405589
H          -0.78433715837202   -0.23871758195079    1.91916627527884
O           2.11108525136618    0.08103017801137   -0.75309628393840
H           1.33298276950758   -0.32250895488413   -1.20050677437431
H           2.26671937919392    0.92774553502165   -1.18080859296557
N          -1.06791604153177   -2.53758001518344   -0.18283103816803
H          -0.47949857065240   -1.54468882435037   -1.26437135262838
H          -0.85161684459033   -2.09239420749879    0.71551553737783
H          -2.07418333882754   -2.64092975594431   -0.22763806264154
H          -0.66231696843141   -3.46521431354886   -0.16579530784248
