    23
        -45.36582915  Gyration_radius:  2.3780088225 Dipole_moment: 8.048
 S           1.62881133342350    0.51200074874925   -1.59964193199980
O           2.61476884823364    0.39053086621336   -0.51872023927309
O           2.07528075923193    1.14586962939522   -2.78728842888054
O           1.25260096667813   -0.99700411234627   -1.98282247000727
O           0.37160836769745    1.06102935734889   -1.04791177580497
H          -0.83908197841382    0.12720419556970   -1.15772970738328
H           1.07175452405109   -1.44628047529302   -1.14729157619963
O          -1.57839836014768   -0.55910259534903   -1.14628092646530
H          -1.69626372697316   -0.81530485327894   -2.06267391383902
O           0.03862084402687   -2.10876332032099    0.29330382141990
H          -0.20172239748589   -3.03583136545556    0.26133313147507
H          -0.68281110353118   -1.61040121038852   -0.15965017038839
O          -0.40220042163160    1.92020164525007    1.36089550024116
H          -1.30174748578018    1.53747597596261    1.38822817304681
H          -0.15039351904022    1.91092656816637    0.41674399938787
O          -2.78944404357438    0.65046079411699    1.00948698049107
H          -3.49919325343829    1.22594437800024    0.72014078553482
H          -2.49047757247810    0.15998858188388    0.22472590765917
N           1.31751972296343   -0.02793982138855    1.62315210159102
H           0.61280235593473    0.77840851588730    1.67870067339904
H           1.93965069675920    0.18149185701977    0.74079267650454
H           1.88491940618606   -0.09417300485526    2.46040485559496
H           0.82339602726792   -0.90673236485711    1.43210252389653
