    23
        -45.38069791  Gyration_radius:  2.31467204339 Dipole_moment: 0.649
 S          -1.45014578822068   -1.24730764035475    0.26984545646884
O          -1.06454559012905   -1.35510731023959   -1.12951105502091
O          -0.67243984980821   -2.11376165400409    1.12712261268482
O          -1.46724120562575    0.13763485449986    0.72215195346149
O          -2.95531308564307   -1.73425072535719    0.36475750846312
H          -2.86938871607888   -2.66655947654504    0.19499370878727
H          -0.10866369607730    0.73956827919803    1.41994904585517
O           0.74146306176363    1.11045974091602    1.75821883787213
H           0.53857745478993    1.51037228449750    2.60499947834162
O          -1.39307722385985    1.93021465395217   -1.23779422628559
H          -1.49708212211342    1.21290264300731   -0.57810964800990
H          -2.15156959298550    2.50555439196238   -1.13140699263116
O           1.86027896565003   -1.34153377547834    1.11777103958301
H           1.73898635479755   -0.48379343243335    1.55584251168575
H           0.99092009143139   -1.78883883903569    1.21375031031764
O           1.25747768593950    2.05163137728683   -0.80628808254811
H           1.22700536582471    1.93521048470845    0.15800151512634
H           0.32872274039092    2.19947344029218   -1.07532520918292
N           1.40766699967325   -0.52479094731792   -1.33835932538474
H           1.42165212696503    0.53835554641874   -1.25547297910253
H           1.94370658228717   -0.84779964909299   -2.13559251100909
H           1.77172808540367   -0.92218181580899   -0.42030408008269
H           0.40128135562046   -0.84545245106556   -1.39923987938238
