    23
        -45.33954655  Gyration_radius:  2.57940583215 Dipole_moment: 3.315
 S          -0.28567121402859    0.94939480469742   -2.61933882571238
O          -1.48100902554044    0.17358358763325   -2.58197427230184
O           0.68380901219210    0.72720997136819   -3.62941209599820
O          -0.71259013759207    2.47653454975988   -2.69017297755931
O           0.38828375921415    0.87586702880495   -1.22732524389518
H          -0.42094457632897    0.68834978096941   -0.58530289804644
H          -0.02124989907840    2.92840736773299   -3.16859447512196
O          -1.00950604006418   -1.93953256360270    1.10168707120944
H          -1.62802248185505   -2.34479451734580    1.71056776111226
O           0.38608948927790    1.74179745866117    1.67797018775999
H           0.85206015935927    1.77704765810518    0.83845344326780
H          -0.53830703641508    1.58051959982082    1.46406797130231
O           1.68606182240079   -1.58248433796268   -0.39595644227239
H           0.85013490908806   -2.05353615880387   -0.33371724669694
H           1.49624940411900   -0.75023697347978   -0.84083203945996
O          -1.66520943328643    0.35667604194536    0.07791216661703
H          -1.48161119213592   -0.54599210946507    0.47852936025922
H          -2.12508159485218    0.19337987919569   -0.76013889418660
N           1.07605700931426   -1.02808189721572    2.40351623158816
H           1.43242625282837   -1.33771011175822    3.29777924761252
H           1.77574142091087   -1.22459501060638    1.69219044895266
H          -0.21180881035715   -1.64411503174766    1.65316153736013
H           0.95409818280211   -0.01768899669956    2.43692998417240
