    23
        -45.37901014  Gyration_radius:  2.28305294878 Dipole_moment: 2.236
 S           1.34344625668028   -0.05570427422052   -1.28999947083950
O           1.63707827739991    1.05413627691665   -2.16266335158002
O           1.19542695891933    0.32169585769588    0.10957447429538
O           0.23311662570074   -0.87999143830977   -1.73812209335428
O           2.63738124444121   -0.99679411469496   -1.30750855678170
H           2.97172936538364   -0.87902523149812   -2.19094368465586
H          -1.14383458785018    0.78269831108872   -2.27210779023519
O          -0.91661285090259    1.60362900770300   -1.82090291236873
H           0.05527679451407    1.64864863542589   -1.92982895630865
O          -1.45624094697172   -1.60229095010691    0.14945315302722
H          -0.82201122951666   -1.84434506359341    0.85053981754671
H          -0.88755356926983   -1.45200096840171   -0.64189450261271
O           0.12836932188313    1.22020632769639    2.38229717598262
H           0.22145354152795    0.37335124782054    2.83165498012243
H           0.73439444059612    1.15868203121866    1.62246706215829
O           0.75469066489796   -1.68562347882063    1.73300791565348
H           1.40476065069593   -2.37762616825405    1.60573827813979
H           1.00745120066371   -0.96250312366029    1.11126569666468
N          -1.84666494224476    0.93397001124661    0.60417549813926
H          -1.17441520767530    1.16010924023168    1.38276504418791
H          -2.78249490855289    1.27032772255604    0.80138201032522
H          -1.47741158742506    1.34424118775711   -0.29265308876601
H          -1.81733550284056   -0.13579106581558    0.46230330126509
