    23
        -45.34997814  Gyration_radius:  2.45475149445 Dipole_moment: 4.248
 S           1.86184467198649    0.56203004369972   -0.67639516446806
O           1.96544818274620   -0.81446177897494   -0.31302765384131
O           0.58102885509025    1.02078847216820   -1.11782911274315
O           2.40722618365400    1.45930898199760    0.43660588078977
O           2.89169777779843    0.84616707868386   -1.82517273090432
H           3.66503145717590    0.32922507149812   -1.61270519757533
H           1.78509151083876    1.38766522562545    1.27012093413195
O          -2.47225589421649   -0.75511701397371    0.74301536848455
H          -2.77942996361293   -1.12338413657761    1.57192540877540
O          -1.52479991165882   -0.46762868959312   -2.28768541603722
H          -0.78824167249449    0.10341645390469   -2.03274164345803
H          -2.20948346721583   -0.32573052256910   -1.62741681256255
O           0.80630376570812    1.33252656193685    2.34942915042783
H          -0.06867120198295    1.42471184852294    1.84020958380075
H           0.88377190828066    2.12025288121204    2.89327532813107
O          -1.23978126659139    1.60143408240269    0.84180977123067
H          -0.74572860709420    1.57235640310160    0.00820808083670
H          -1.78632243572267    0.78026330773276    0.84241360612883
N          -0.56176349261601   -2.31796119291060   -0.25355510393959
H          -0.79635925401210   -2.15151455722623   -1.22988430701311
H          -0.46665707790961   -3.31703118285865   -0.12142302578891
H           0.35127233829780   -1.89559439195912   -0.10554012023513
H          -1.75922242645461   -1.37172292587660    0.40636317578549
