    23
        -45.37922844  Gyration_radius:  2.27214231382 Dipole_moment: 2.382
 S          -0.93897362085062    1.51001060747961   -0.59475200407309
O          -1.19787549535310    0.11317034360665   -0.26839317534604
O          -1.34414717893170    1.89427410915053   -1.91428297123956
O          -1.85910248195712    2.31898286586995    0.44075362393039
O           0.43592164459275    1.88077739145141   -0.26459709000127
H           1.34320661691236    0.96159924762154    0.82661496356133
H          -2.00422102435319    3.15162152265421    0.00204392024899
O           1.67302499760471    0.21654934597529    1.37759103799654
H           0.91380498632413   -0.00209020447023    1.95224701525002
O          -0.90411419464446   -2.48800069634795    0.25237462675089
H          -0.96521273308723   -2.38509648294126    1.20770050474662
H          -1.26858176582311   -1.65802790715016   -0.10408927205683
O          -0.84214437062832   -0.20616227365081    2.30656256238714
H          -1.26439321008843    0.50371223255981    2.79224582386614
H          -1.05563117628968   -0.03879079426350    1.35922555905638
O           0.93787874092034    0.34098781296611   -2.34964338478439
H           0.96776737699980    1.04217716894850   -1.67053444641522
H           0.09307907149958    0.49510826686226   -2.78555585820646
N           1.47579032732751   -1.55845712011969   -0.52425160902389
H           1.25890238968771   -0.94594219866493   -1.34915745133583
H           2.25960468464267   -2.17108432565446   -0.71915868628542
H           1.68033290365296   -0.88341131352109    0.29326589196063
H           0.60508350178104   -2.09190759821842   -0.26620960084103
