    23
        -45.38150352  Gyration_radius:  2.27706975001 Dipole_moment: 3.781
 S          -1.17971416677296   -0.07466716850385    0.58016250616413
O          -0.11367469368924   -1.01174442983777    0.97834883339288
O          -1.36542069269111   -0.10565334061767   -0.86289686641080
O          -2.49930710932304   -0.56252453434586    1.26016158000000
O          -0.92079769719535    1.26316319936123    1.07212462361130
H          -0.69495024583108    2.23744918543677   -0.29017011609198
H          -2.52824062222023   -1.52278280230375    1.08724630156142
O          -0.45673111517766    2.45544724467614   -1.21930431378014
H          -0.98877584636505    1.82574019008973   -1.72177554556268
O          -1.71551832449054   -3.08575742242427    0.93669946408997
H          -0.94043005237586   -2.48712853337549    0.93187200867953
H          -1.66309359222538   -3.59662815447380    1.74734922140753
O           0.88364256161335   -1.13021071372496   -1.68133487851740
H           1.05436777078631   -1.72063706690492   -0.94161615411000
H          -0.04115092404237   -0.81672343069704   -1.52256106786657
O           1.72236911692346    0.79147664771982    1.54804125921716
H           1.16002645909602   -0.00793100364466    1.44437448983196
H           1.08835567405964    1.45374424407515    1.84865746849419
N           1.87336154214663    1.23412207337901   -1.05534549751923
H           2.70623275978167    1.61138696889467   -1.49305658094630
H           1.62208187371233    0.27058305784461   -1.42621093228961
H           1.98028768046732    1.13051666094458   -0.00347360431979
H           1.01707964381574    1.84875913842878   -1.21729219904127
