    23
        -45.36664837  Gyration_radius:  2.29641734976 Dipole_moment: 7.545
 S           1.09661369046593    1.25344310961662   -0.62565614178284
O          -0.29596349710298    0.98691424257047   -1.07377818917804
O           1.74383531871992    2.25226679574888   -1.40401216022902
O           0.97380963694451    1.70218428089479    0.87469957142897
O           1.81955477238933   -0.02442366097493   -0.54591061454513
H           1.17151044550137   -0.67429521093348    0.74832679873748
H           0.12378009745870    2.20839548602206    0.92815862387001
O           0.66498062090263   -1.15341769167483    1.45982156685031
H           1.30304930733213   -1.33746739140581    2.15047750472652
O          -1.48266687678508    2.53316381900693    0.74364281771086
H          -1.79483928344487    1.75016555666923    1.23444148139927
H          -1.38382909716838    2.22631528738896   -0.17053298555472
O          -1.70589776859476    0.10887306132473    2.03226052718577
H          -0.81070666907888   -0.24801669433435    1.87551600965691
H          -1.76673692600269    0.27842748226926    2.97372038359648
O           1.29341489009804   -1.89920182942357   -2.31472475052509
H           1.66943790369220   -1.23797079133579   -1.68608237156583
H           1.40756233846442   -1.51946974317720   -3.18749254505472
N          -0.84021245674875   -1.47528258813141   -0.80073140975169
H          -0.52667322561678   -1.70929031095043    0.14889990526856
H          -0.15932601691880   -1.87813020921266   -1.48999730231334
H          -1.80018383025686   -1.75773776655680   -0.96216476639792
H          -0.70051339421688   -0.38544522338000   -0.90888193350521
