    23
        -45.36442090  Gyration_radius:  2.30008916397 Dipole_moment: 3.998
 S           1.03639974727273   -0.98180042120880    0.66240334018271
O          -0.41519198330160   -0.83763830816494    0.63722220108928
O           1.48509224123866   -2.29987362318848    0.37341313098181
O           1.61718556390334    0.05304735639239   -0.32908752076849
O           1.57943095753085   -0.49687338616517    1.99619358733750
H           1.58889857079050    0.53904504925588    1.98515049498024
H           1.23205092725646   -0.11862700486555   -1.27829146209155
O           1.50508151239497    2.00220733310636    1.72736096499117
H           1.85047307735814    2.05543653505562    0.83094538445823
O           0.45098124924486   -0.41095742045940   -2.50531361529436
H          -0.34379125706272    0.13783070897785   -2.35194224103046
H           0.14294326551703   -1.33321276771050   -2.35648467500457
O          -0.55675221549888   -2.64902056765721   -1.43047852350570
H          -0.71161018756344   -2.17210679313157   -0.60075481949327
H           0.16609960270001   -3.24972117091133   -1.22436831911021
O          -1.79460199978399    0.48533381003615   -1.29285222587457
H          -1.36372824358170    0.03487727159750   -0.54165575517355
H          -2.51405212993769   -0.08675223055938   -1.56823734524128
N          -1.11593676294392    1.90184400080908    1.44648535359824
H           0.50967404113300    2.11900754309017    1.65972308463979
H          -1.47566208153105    2.19614731020080    0.54579730259616
H          -1.12038724544977    0.88485027595175    1.45226558777012
H          -1.75259666969570    2.22695650957253    2.16250607994131
