    23
        -45.37623440  Gyration_radius:  2.39702820604 Dipole_moment: 1.841
 S          -1.84376906493822    0.20587143441103   -0.34797980921611
O          -0.94145941297473    0.04773117460555   -1.48152126777055
O          -1.99444647623987   -0.99891421150833    0.42971513447494
O          -1.45719385911999    1.35892965559428    0.46183413563192
O          -3.26811155387032    0.53954994228475   -0.95710289473700
H          -3.10365815738133    1.27616309199097   -1.53938123716437
H          -0.57878245715235    0.59424276617836    1.69200767069320
O           0.01259525743493   -0.02730074561847    2.16617479535497
H          -0.55497753685634   -0.76596098304977    2.40353103654212
O           0.93669727031509    2.49425285459567    0.06339058974118
H           1.10394304019240    2.79140539767641    0.96024098861643
H           0.03641151910338    2.10944342148570    0.08372589114523
O           2.94102968870536    0.97996606813025   -0.90435460865931
H           3.02384329614936    1.17053648517107   -1.83993686454083
H           2.27925868989082    1.62018755809746   -0.55821209295113
O          -0.32432838089496   -3.07728041812405    0.08240216707152
H          -0.99238509416521   -2.37443307400829    0.22088421622596
H          -0.80807059102272   -3.83810770829364   -0.24010511808315
N           1.13802949624546   -0.83629516640316   -0.14151223885021
H           0.36472872766456   -0.49669943281942   -0.77829031082245
H           2.02686781139563   -0.37323372206132   -0.42908180949817
H           0.87026992209907   -0.53957490445913    0.83086583089310
H           1.13350785535061   -1.86047948390177   -0.17729420410147
