    23
        -45.37876667  Gyration_radius:  2.27420904277 Dipole_moment: 6.345
 S          -0.03060784606044    1.21918094724030    1.39385747692716
O          -1.14593745445182    0.51356758167776    2.01662277203798
O           1.19646396837910    0.46673612510080    1.38185917837826
O          -0.41198200185210    1.70780011557157    0.06761959701742
O           0.22541789741883    2.50341257832716    2.27983636267400
H          -0.64667119601589    2.86919407824681    2.38971828905912
H          -1.13044779501944    0.69365675303931   -0.97277165185496
O          -1.53915647628028    0.01264691497269   -1.56579129647330
H          -2.08954520677766    0.49535504395285   -2.18411736656227
O           1.16377268977146   -2.00501040974759    0.33410312800065
H           1.27626392423083   -1.75138410591537   -0.61981855376668
H           1.39211014614008   -1.19545994190016    0.83096169767173
O           2.00254796968020    1.42509772490391   -1.09344922641149
H           1.12204865140229    1.69601410617036   -0.77989195889478
H           2.45709823790133    1.14595213714523   -0.29241698496785
O           1.09926000409152   -0.92931410802550   -2.07032926500784
H           1.56463906384126   -0.08624233957131   -1.88288460643002
H           0.16487116707275   -0.68968754299310   -2.13723402466256
N          -1.36501516450084   -1.64557035023055    0.58259683596527
H          -0.31174420592731   -1.94870786314763    0.49153991048929
H          -1.66310594904650   -1.26366902576802   -0.32861928684885
H          -1.96500002281237   -2.40177599161374    0.89219542063120
H          -1.36528041117024   -0.83179240746468    1.26641356299830
