    23
        -45.37448690  Gyration_radius:  2.3730543259 Dipole_moment: 3.754
 S           0.82536303965520   -1.44830650252540   -0.45307030757096
O          -0.61843271984262   -1.65790549775658   -0.31356070242531
O           1.55706295466057   -1.85147071285581    0.72421561526020
O           1.28961474538805   -2.41709714036028   -1.62745171675719
O           1.11340366595847   -0.10278977532945   -0.91309992719943
H           0.01125414162337   -0.10652019285908   -2.20687702390686
H           1.47217150741673   -3.24590919818082   -1.19491864263399
O          -0.84832813330536   -0.13873555457197   -2.67230875586501
H          -1.27131983812971   -0.92568953510076   -2.31556030858772
O           0.14859974873103    1.11490622635959    2.70493381823458
H           1.02496885984364    1.02942497181732    2.23597394318362
H           0.21143435035906    0.53532965754316    3.46605393829319
O           2.34299218044694    0.58713730580193    1.38101510051595
H           2.25569677943125   -0.38572661893596    1.36919773201607
H           2.15232941478389    0.81539945001708    0.46080474628985
O          -1.53258572326990    2.03441366868642   -1.32466852719487
H          -0.72852362048406    2.55591792119636   -1.37121374192400
H          -1.39722236305340    1.28875164788900   -1.96277961655441
N          -1.61780492812943    0.46810134306280    0.81719180866806
H          -2.55885312803575    0.34154711462570    1.17513937017910
H          -1.25501327227597   -0.44005320358704    0.39540310576640
H          -1.61619878888946    1.18571053789790    0.03630219417026
H          -0.96060888268538    0.76356409712729    1.58927789803996
