    23
        -45.35087425  Gyration_radius:  2.45943951244 Dipole_moment: 3.313
 S           1.03574064415856    1.62403561402915    1.09441745345987
O           1.21857832588365    0.38880133312014    1.81097188289523
O           2.05180059137986    2.04478046050322    0.20257599642675
O          -0.31280093232465    1.57771688777407    0.37130450616409
O           0.83489020307926    2.75294670322319    2.18086991554525
H           0.43024736311223    2.36031298171481    2.95303570571550
H          -0.91898118873753    0.92118097779083    0.95598146268680
O          -0.07034992875050   -1.71373420239667   -1.77935544940095
H           0.18481541796523   -2.29434111024832   -2.49703044406247
O          -2.31768780469328   -1.53410434940896   -0.15226266514837
H          -1.53069529948341   -1.90614966771819   -0.58136472887746
H          -2.56792601648265   -0.80245862141364   -0.74728186509537
O          -1.80241232564034    0.51223941080526   -1.87511742710796
H          -1.35471112026756    1.15580382814166   -1.31651199087097
H          -1.13580947668432   -0.15790982270556   -2.09161790271506
O          -1.46370236894343   -0.07614390341596    1.79911305061761
H          -0.63148154494958   -0.46701157302688    2.09679427718903
H          -1.87138597983164   -0.71627275278084    1.13044425806061
N           2.15721645861848   -0.71344470134076   -0.69300771900462
H           1.97938911432871   -0.70305419004868    0.30708638807361
H           0.77160324641314   -1.36085294906899   -1.38259830938535
H           2.25615996532519    0.26408665559196   -0.94925852405572
H           3.05750265653554   -1.15642700914395   -0.83718785111682
