    23
        -45.37470297  Gyration_radius:  2.37875649 Dipole_moment: 4.434
 S           0.57243973676477    0.17987872125430    1.59389961307824
O           1.24784312036622    0.87016272091675    0.50284900272398
O           1.42801464851684   -0.71390024888170    2.32779549557352
O           0.16694677376232    1.34081418230690    2.63514819806086
O          -0.69961517677444   -0.37917757917318    1.17353933097592
H          -1.76585542111855    0.88095153353204    0.94726013094939
H           0.85043649580719    1.27528865499178    3.29438357041027
O          -2.13044599458039    1.76358046738916    0.71249848620899
H          -1.87380194653036    2.33409781153727    1.44018718003732
O           1.98182888748378   -2.26174049275974    0.21439234611864
H           2.27754846132829   -3.09123866924130    0.59642228503499
H           1.85047230088619   -1.65455313527764    0.96787917392650
O          -0.52131546522994   -2.16420258504702   -0.84112576801558
H          -0.81220653098166   -1.61113653662685   -0.09592532912824
H           0.41844289372214   -2.33511780664596   -0.63909001890097
O          -0.57960893185382   -0.52008459674355   -2.85641365965811
H          -0.65442675347093   -1.21017398532055   -2.13417061872182
H           0.22507751622550   -0.73681796900850   -3.33060782309021
N          -0.40306929192874    1.62822734952062   -1.32671331612931
H           0.35839499162826    1.33758568246607   -0.62959733631609
H          -1.24902113081450    1.78312718619015   -0.73105286121446
H          -0.14212984927062    2.47064499953879   -1.82725309275414
H          -0.54594935392577    0.81378429513442   -1.99430501918772
