    23
        -45.37943395  Gyration_radius:  2.31711879932 Dipole_moment: 2.084
 S           0.34585551810886   -1.63345728874968   -0.73885834227826
O          -0.36410515522405   -0.82787572816698   -1.72296150580339
O          -0.51441521061923   -2.05172448123284    0.34968057248815
O           0.80423514028571   -2.94659672790225   -1.49755682705899
O           1.56850435550712   -0.99525705813646   -0.28295449001339
H           2.33944684244008    0.48904508858690   -0.61808726215698
H          -0.01367382501130   -3.27290333994727   -1.85874963833859
O           2.51710366803117    1.45306091455169   -0.65182561048970
H           2.82094039467081    1.68752242580127    0.22799036027766
O          -2.61506056105616   -0.48268285119773    0.67614594501889
H          -1.85814285743458   -1.08070937256893    0.48618661498027
H          -3.21634696662549   -0.98305772666173    1.22975354083982
O           0.71845594634688   -0.15380687716723    2.09387104785858
H           0.18497947683437   -0.90171075108613    2.37502067570928
H           1.13565054511973   -0.46261863829545    1.26596594014982
O          -1.10839919448405    1.64665001450532    1.28807381605623
H          -1.82496514723965    0.99596827017492    1.13670586117037
H          -0.40037180020364    1.12697362827088    1.72904513521625
N          -0.10993809695247    1.70441623897472   -1.11559919545965
H          -0.49480551556849    2.37118963074273   -1.77504218601009
H           0.92727897896231    1.81123910591608   -1.01408249942621
H          -0.56313187596414    1.79619656864733   -0.14046108483919
H          -0.27909466994523    0.71013893493539   -1.44226088788472
