    23
        -45.37583650  Gyration_radius:  2.28653246427 Dipole_moment: 1.583
 S          -1.24759986480538    0.63477294256245    0.85496654393757
O          -1.71528524021194   -0.73377598285249    0.75605935598427
O          -0.01521829927273    0.74890023151040    1.62633219862774
O          -1.14879741870547    1.26542286207064   -0.44708169387053
O          -2.33048871167095    1.44168085570165    1.68204647491689
H          -3.13928927359630    1.26986024872327    1.21016112912786
H           0.29488228134369    1.03092930873675   -1.28128875617705
O           1.23070400779607    0.84201481906725   -1.51550404162795
H           1.71532237311668    1.53607305004391   -1.03284132251291
O          -0.26438903527546   -2.93529163917005    0.02288698986210
H          -0.92616840149786   -2.43632942680070    0.53182820599712
H          -0.53621223384798   -2.78528116645493   -0.89773716217517
O          -1.19952286003832   -1.27901331819399   -1.91024680767919
H          -1.53282465672722   -0.91108816887386   -1.07637056386306
H          -0.86897993586050   -0.53395543554094   -2.41592474130881
O           1.78550220246236    2.46502949675508    0.58289117216934
H           1.13298840464190    1.91803611328087    1.06316386935253
H           1.45058430954689    3.36215589956901    0.61313324960786
N           1.49069765246846   -1.00022439563705    0.33088675879048
H           2.43203054723446   -1.22200358778872    0.63803974458227
H           0.90084882725524   -1.87837670785610    0.18037148481053
H           0.99122819599765   -0.40625563708875    1.03530570819898
H           1.49998711965328   -0.39328037177980   -0.55107779660908
