    23
        -45.37370193  Gyration_radius:  2.33866269656 Dipole_moment: 4.124
 S           0.82426693104280    1.44132859199410   -1.00841790447910
O           1.52898225472241    0.44582006933037   -0.19629810411587
O           1.26136512030111    2.78242707679701   -0.78271535801394
O           1.21481456896253    1.09869951596521   -2.52670924433298
O          -0.61702504941714    1.23054773233373   -0.93164301112481
H          -0.90792178308091   -0.05987143359872   -1.97156941095432
H           1.83455306295089    1.80489257457559   -2.66638784912915
O          -0.86638553476052   -0.88347987231608   -2.50042498384542
H          -0.25862288264926   -0.68598161577448   -3.21646114109427
O           0.46930417196445   -1.95364586910965   -0.46369211481951
H          -0.09964511762936   -1.80001649438998   -1.25088019970895
H           1.01784736993393   -1.13848831258329   -0.41517016607244
O           1.21128864950029    0.34648488357804    2.39780184960599
H           1.35510241826726    0.49953571196299    1.43169618655559
H           2.08589090253988    0.23499090922377    2.77348680965196
O          -2.30742086039457    0.71752375218584    1.01248617185819
H          -2.25356678065641    1.49128609018628    1.57669875123987
H          -1.76924204799177    0.93713887731197    0.21757637008015
N          -0.76299637764533   -1.32637175599951    1.72746300699154
H          -1.13795191986329   -2.06823475864209    2.30675394927324
H          -0.33159687320173   -1.70390813685237    0.80525523254480
H          -1.49662066052403   -0.61077708859286    1.47933254106196
H           0.00558041764099   -0.79990044759589    2.20181862881951
