    23
        -45.36164455  Gyration_radius:  2.65502507142 Dipole_moment: 3.433
 S           0.24701010992953    1.66558918539399   -1.96965034784516
O           0.19647181825791    2.40847395766543   -0.70711217647282
O           1.58043982274555    1.36392785231919   -2.40019394407213
O          -0.60123781866489    0.47052126103671   -1.88373867471879
O          -0.42492263112543    2.61179235142549   -3.05122551696076
H          -1.23334908352115    2.89689661659390   -2.63384155896715
H           0.62701655110174   -0.60718703446985   -1.55296746430909
O           1.41337258076807   -1.07262263438809   -1.18342604247133
H           2.11273985163656   -0.83871620633601   -1.80139419134506
O          -1.40330007946942   -1.16062693243352    0.07512454064036
H          -1.34697615352132   -0.48361736128656   -0.62797317465177
H          -0.69172698637572   -1.77240682760763   -0.14050232379495
O          -1.61530656754476   -2.63189226712763    2.55529676743189
H          -1.82869099171179   -2.29931438899904    1.67379841934137
H          -2.40893396967865   -3.04807803788330    2.89372263303944
O          -0.44937276871496   -0.08270937758274    2.39399071421457
H          -0.50528669418312   -0.89848204532325    2.90701403997713
H          -0.98106207894550   -0.27225111792743    1.59553636920148
N           1.48962270911510    0.74805984620094    0.79216579271905
H           0.98978287173838    1.53000613117097    0.24881560828081
H           1.60416985806983   -0.04067644224110    0.10377861956636
H           2.38360906463284    1.07332387667708    1.14309235450169
H           0.84593060539771    0.43998958516651    1.56968955668574
