    23
        -45.33978835  Gyration_radius:  2.70940145956 Dipole_moment: 5.143
 S           2.39053447491573   -0.78230996122060    1.02813259276663
O           2.95057463689389   -2.07773291006313    1.18028499705722
O           3.17375059657908    0.36317786291890    1.33064632402918
O           1.83050482465033   -0.62234309725932   -0.42505938103213
O           1.07436969926023   -0.69247552428150    1.89988057579151
H           0.52790940457245   -1.44387207831894    1.63124008263138
H           1.13821547626654   -1.31717554650882   -0.49262275701491
O          -1.94083828681645   -0.44077216747480   -0.34577175600177
H          -2.41833120255370   -0.19112406553450    0.44736368318970
O          -3.30211240488167    0.82947363808581   -2.49337103845029
H          -3.49691136117858    0.23616190476684   -3.21984635265862
H          -2.90327041726691    0.29001186643447   -1.79458154023977
O          -0.14227660473528   -2.25961428758552    0.08383483249502
H          -0.90124260813331   -1.63195079608427   -0.10541969675735
H          -0.36127137187070   -3.10056752834636   -0.32192237587719
O           1.18030421279771    2.19817899620463    1.58160930468019
H           0.84670332822469    1.91485999037082    2.43493994626389
H           2.00105897345634    1.69525950588971    1.44797479521307
N          -0.27716693988362    1.47753913324768   -0.78668996345533
H           0.49553393950212    1.13257724868734   -1.34327758185872
H          -1.27575725348394    0.33684910005591   -0.52523167105869
H           0.12790016855835    1.84717009485491    0.07612035942843
H          -0.71818127487508    2.23867863116155   -1.28823338913658
