    23
        -45.36707941  Gyration_radius:  2.29022938375 Dipole_moment: 5.244
 S          -0.51985326697997   -1.54425876171953    1.11504024849195
O          -0.71513381636703   -2.90127037728718    0.70251790760253
O          -0.88663707440969   -1.20653624544404    2.46806330391853
O           1.11709576216419   -1.35375993465277    1.07970043523249
O          -0.98084496582511   -0.56217245218633    0.14171404263107
H          -0.30193558918480   -1.38885843235052   -1.10321045787295
H           1.39009674364509   -2.04475454502221    1.67530145395511
O           0.27571205796216   -1.64490291777660   -1.85625730676136
H           0.61043101645389   -2.51101582201496   -1.61833257660453
O          -1.80294204721233    1.48468180587327   -1.31055759235985
H          -1.63498634726335    0.88312599471258   -0.55714814411213
H          -2.50234846238129    1.06736266599022   -1.81722749822489
O          -0.53980922792965    1.39746804801706    2.20627285064744
H          -0.57634700738842    1.72852664323011    3.10550268162021
H          -0.74027267276793    0.43714610445014    2.26363174341960
O           1.59821470301780    1.28604739894730    0.61403892242946
H           1.67420411547317    0.33900912332187    0.81033674898202
H           0.81443593375930    1.55319221022228    1.14508158400581
N           0.76286055699032    1.00728948280453   -1.84521156197341
H          -0.24589497076346    1.30749565269220   -1.80029951019058
H           1.16171524824843    1.19778807820390   -0.86104882910645
H           0.76338780131382   -0.02529080849629   -1.98852605471027
H           1.27885149945638    1.49368706847657   -2.56938241103232
