    23
        -45.38497664  Gyration_radius:  2.25776835595 Dipole_moment: 2.537
 S          -0.46244027894540    1.80719387962510   -0.11002263118513
O           0.85569146687623    1.55081603767620    0.46773322649602
O          -0.69046880042663    1.04576656677939   -1.32026040724072
O          -1.51456775631150    1.66490356636284    0.87821553916581
O          -0.46105780583456    3.33012800656187   -0.54512288012046
H          -0.46523201251932    3.77500414334125    0.29571124058098
H           0.03370753982829   -0.90761871473354    1.95862573497005
O           0.97972639430013   -0.75870796649448    1.79101317946838
H           1.02933200279832    0.16223468847721    1.45742141605262
O          -1.32740999545972   -1.52383112499905   -1.00070274912683
H          -1.65741990123123   -1.47754994191441   -0.08681892682977
H          -1.24416109561019   -0.58653712851877   -1.27332033944701
O           1.89149228939436    0.51974780960598   -1.71953479905672
H           1.82193955832818    1.00268473003206   -0.87142803201926
H           1.02989054036718    0.71047785617036   -2.12136124856700
O          -1.76505769632165   -0.80161136761272    1.61183403619096
H          -2.50331580706920   -0.87138194368908    2.21916575750424
H          -1.71594716357422    0.15639497501884    1.35092302357304
N           1.25538918417301   -1.79509453379514   -0.60655847700248
H           1.27853755526938   -1.51739689508623    0.42202957354319
H           1.75970905063450   -2.65397898514762   -0.79123668664976
H           0.22183891319980   -1.86095938991544   -0.85929936826603
H           1.64982381827033   -0.97068426764362   -1.14700617210107
