    23
        -45.37482857  Gyration_radius:  2.38137968954 Dipole_moment: 1.017
 S           0.75626811382643    1.33135712475815    0.81445261990434
O          -0.59667359594459    1.82019583523713    0.96847345863622
O           0.99713403965778    0.11852733849032    1.59368540136634
O           1.14653948086513    1.15588669384078   -0.57367629843921
O           1.70727438609937    2.45308163983472    1.40671081797157
H           1.24058478237407    2.71803885900407    2.19320173455208
H          -0.08146426527784    1.35826632379447   -1.70044262340836
O          -0.80931281003577    1.31946441660276   -2.36069921334899
H          -1.01163200448930    2.22885581049016   -2.58395819363704
O          -2.27339615288177    0.21678403833058   -0.34227541483401
H          -1.85523292044451    0.85770311668863    0.26997178206300
H          -2.02734958050078    0.55115437597326   -1.22444276735231
O           0.37277996349221   -2.47319533589565    2.53397655860024
H           0.67793621498278   -1.55935139633147    2.43986840547998
H           0.70589719180745   -2.78390166017890    3.37643452911277
O           0.99548621076930   -0.99879755657045   -2.24970405855738
H           1.38207614737871   -0.26862304512267   -1.73551664395372
H           0.37342076200079   -0.56925896743862   -2.84696103779586
N          -0.34977024863341   -1.52941440880952   -0.00458836977810
H           0.14447707652076   -1.59895022777910   -0.92615936637629
H          -1.26487873832500   -0.99746022000966   -0.13361592469932
H          -0.47091283672687   -2.42489923754358    0.46527916876001
H           0.24074878362081   -0.92546350728109    0.61998544578843
