    23
        -45.37772659  Gyration_radius:  2.35732619795 Dipole_moment: 1.968
 S          -1.41664540536009    0.83666521625327    0.67398017102658
O          -1.10723607741633    1.48706572147362   -0.59674967544108
O          -1.42056498292316   -0.60937976004147    0.56440608168798
O          -0.57069645826449    1.32539096938312    1.74455017914706
O          -2.90754092071452    1.24331007331457    1.03082333271936
H          -2.89279634637489    2.19315582575282    1.10992187621184
H           1.46128556849095    1.95398848394073    0.76549526392374
O           1.48261465062243    1.65409822705992   -0.14878045152320
H           0.55961723421242    1.76168260850495   -0.46248931102989
O           1.01213120887277   -1.83199034702915   -2.47393264519938
H           0.09479176292392   -1.46275397123037   -2.49399792653005
H           1.49559008769940   -1.37545686160451   -3.16411372195550
O          -1.36488590685016   -0.65946671635968   -2.19051568302398
H          -1.26129761014721    0.23426092217920   -1.81258701592075
H          -1.78324446620895   -1.15537234926871   -1.47805929048414
O           1.23834454745951   -0.44344421523157    2.67516904462962
H           0.56319978420963    0.20564408142630    2.39306312512450
H           1.11989685115767   -0.54426470614425    3.62007318152172
N           1.16161853136693   -0.98795629501449    0.04551388013611
H           0.13611929103504   -0.97641120487276    0.27595661891678
H           1.29672558270007   -1.48315876756060   -0.86803109759012
H           1.44962785532648    0.02426097895060   -0.05325384355787
H           1.65334522817489   -1.38986790388054    0.84355790719896
