    23
        -45.35727182  Gyration_radius:  2.44969224685 Dipole_moment: 2.692
 S           0.40056323668781    1.04090011494319   -0.35020872426828
O          -0.31506300175801    0.77277714153808   -1.57186962114208
O           0.59072312575149    2.41743071422651   -0.01373029796349
O          -0.37220733983773    0.32713205359933    0.80321143265466
O           1.73203443330141    0.30233702747586   -0.34944818795869
H           1.56649255839708   -0.55309495026149   -1.01209036715605
H          -1.34126312535145    0.56359145027531    0.62829156084081
O           1.04060992952855   -1.55035556324375   -1.80425761228043
H           0.34514289322571   -0.99539394918776   -2.18797373231706
O          -1.77664697131694    3.62098485261768    0.36037488516004
H          -1.73910437876642    4.07854322326558    1.20244230760619
H          -0.86235189151114    3.33842199287343    0.16194638771738
O           2.40111165407786   -1.68967604851356    1.55378106281747
H           3.30467965137330   -1.89012938049756    1.30246655123326
H           2.18051480718456   -0.85265597621812    1.12326772281533
O          -2.61897740570858    1.12843782693435   -0.06793203012886
H          -2.28840342670632    1.02407285015334   -0.96981343041342
H          -2.54822319128762    2.09108359212351    0.12071665053608
N          -0.01051808650278   -2.71165897290139    0.27760743461337
H          -0.37718008953478   -3.65131207835755    0.35819823741836
H           0.60048282916999   -2.12360276027918   -1.08356035829877
H          -0.70782863678005   -2.06188635766506    0.62209912796015
H           0.79541242644093   -2.62594680295991    0.89648099057320
