    23
        -45.35044918  Gyration_radius:  2.51165792157 Dipole_moment: 3.421
 S          -0.73205519415310   -1.06946404129024    1.12390731872186
O          -1.28453838725546   -1.58165322889624   -0.11331225467838
O           0.52342486266216   -1.60419158282076    1.52150362000548
O          -0.65596983584719    0.46440521219932    1.01126249605485
O          -1.75387451056792   -1.29524933309770    2.26325350266017
H          -2.65459871421041   -1.19252939572032    1.86629982390319
H          -0.64128955897760    0.70124211602264    0.01173335481009
O           1.91649695122094    0.29785854839244   -1.98762070940174
H           2.13405302524283   -0.55448933676684   -2.36676180062069
O          -3.79551276084130   -1.27465369358658    0.64447765734511
H          -4.33184575630385   -2.07085241912985    0.62819932279099
H          -3.03162878726857   -1.43161893920631    0.05734810970783
O           1.29655798039509    2.84183127657974   -0.42368040822335
H           0.34613917470727    2.76239350319912   -0.52999706752754
H           1.68937913327227    2.42276419686735   -1.19487007293121
O          -0.63574980547902    0.68451378125288   -1.49700903648016
H          -1.01888754287547   -0.20018679288914   -1.55197597066993
H           0.31752793206328    0.58642157800126   -1.77046418564825
N           2.52189733107882    0.27987127283985    0.56363890337077
H           2.23838715591743    0.27326269403297   -1.02913702897832
H           2.16377829519026    1.19335939395789    0.82731025519767
H           1.93244275462587   -0.42317738009861    1.00341795377587
H           3.45586623742933    0.19014256017159    0.94247622680868
