    23
        -45.38000694  Gyration_radius:  2.2900763691 Dipole_moment: 6.744
 S          -0.70840821048263   -1.73539072112547   -0.08658088644452
O          -0.89695887872739   -1.09790808625342    1.21945566109347
O          -1.10509868924920   -0.87810160533053   -1.17847540026562
O           0.63866687354710   -2.26460239152344   -0.21365795781077
O          -1.68031889621016   -2.98206135163447   -0.11112599202332
H          -1.24233333866511   -3.59889856935715    0.46620378427768
H           1.78606817693302   -1.17158820059294   -0.38733465217119
O           2.44467189445851   -0.42630732925833   -0.40831053561000
H           3.29795262767455   -0.82994523526219   -0.57392137731969
O          -0.37207128674714    2.56848148271165   -0.01336852427910
H          -1.27930637416655    2.18949782881994    0.04207265437579
H          -0.02295694035985    2.24805240208137   -0.87788951011075
O          -2.49406431744406    0.95037460780056    0.18458383864196
H          -2.40859335284992    0.45352855179242    1.00429333744231
H          -2.16071872947867    0.33345629739910   -0.49330248524685
O           0.61608229591689    1.07051584078872   -1.97934908312220
H           1.43258176424302    0.67286279668870   -1.64958917332109
H          -0.05560172539720    0.37054489139718   -1.90252766965841
N           0.86280202048120    0.83030418872543    1.41985039471055
H           0.37661269737109    1.66147144382960    0.88153134245808
H           1.15214274226513    1.09836347796672    2.35372442973328
H           0.15551821908998    0.04091805237479    1.44710686002124
H           1.66333143780277    0.49643160796050    0.85661095463330
