    23
        -45.37027714  Gyration_radius:  2.39105888891 Dipole_moment: 7.030
 S           0.78155586169931   -0.64397231625230   -1.97214635955518
O           0.94369495127430    0.76281558080629   -1.61679794593341
O           0.93654435980646   -0.96361445909332   -3.35330459498981
O           2.01212504862406   -1.38936699648781   -1.22061389819575
O          -0.41652178499695   -1.20397407056354   -1.34573261769552
H          -1.63710059144510    0.18342138449090   -1.41199013473563
H           2.27456014825326   -1.98920012957088   -1.91065549977535
O          -1.67124111292104    1.15310080590779   -1.38577426272219
H          -0.74723371079508    1.38360303890995   -1.58694699195882
O          -0.71536989200527   -2.09601475525259    1.04915969521366
H          -1.60747564075908   -2.44725220268310    1.03303700443985
H          -0.52526261194527   -1.82336409860658    0.11094498158788
O           2.09569819487306    0.64080593968503    0.68551128855686
H           2.56688930798983   -0.18741627957595    0.55560771986529
H           1.69697059071930    0.81864731296686   -0.20611444972120
O          -1.88985469345483    1.95537954541684    1.09200068858707
H          -1.91719704871907    1.64667953721107    0.14240353486438
H          -1.69824872843482    2.89355068040987    1.05016334948193
N          -0.09935005795571    0.26575066180135    2.08388859654889
H          -0.81675748984223    0.96947957617931    1.75379934768675
H           0.82455309950469    0.46030370307787    1.58493196865949
H           0.01467551641787    0.30892879104072    3.09045057642197
H          -0.40565371589673   -0.69829121969003    1.77817800339162
