    23
        -45.36935235  Gyration_radius:  2.59235974153 Dipole_moment: 5.532
 S          -0.47003891579584   -1.82968930970369    1.41568965986966
O           0.88724926160501   -2.25298179536386    1.14602572972979
O          -0.56231015432774   -0.55367121679187    2.10173952721077
O          -1.31296324473920   -1.86167108606460    0.21923261454656
O          -1.07364553980864   -2.90747909360864    2.42072259898513
H          -0.65411165451249   -3.71222051368958    2.13296944589673
H          -1.97729521157270   -0.33195729156854    0.07000299850710
O          -2.07689615848965    0.64230566607102    0.17605157276850
H          -1.93743848618423    0.75473504376177    1.12406214201347
O           0.69175130016995    2.74040714700302   -3.05096390251434
H           1.30398863111478    2.35223545850478   -3.68016975407914
H          -0.10806657577803    2.96980718425876   -3.52905493977101
O           0.78519226185292   -1.40610343397622   -1.33623159580817
H           1.20937908749211   -1.74512680514684   -0.52298988556039
H          -0.13612844310968   -1.68137882860953   -1.18456872577586
O           1.41394830964143    1.12989943551532    1.72441209569900
H           1.46202156629932    1.67835277005125    2.50841569263951
H           0.75996039826462    0.41965354586005    1.92988356934517
N           0.36817727312333    1.14568093829998   -0.74774850692388
H           0.52687134531519    1.84072433895008   -1.48572884658651
H           0.91197079349425    1.34662077214618    0.11450164362869
H          -0.65109819429580    1.08771666167740   -0.46931953933238
H           0.63948235024227    0.17414041242519   -1.07693358448595
