    23
        -45.37611036  Gyration_radius:  2.379033853 Dipole_moment: 2.445
 S           1.52332921721505   -1.13998906018591   -0.61787300275303
O           1.84640689204372    0.03354005833372   -1.39683276123341
O           1.76419197126024   -0.94683920978097    0.80988311071894
O           0.18409166605478   -1.65155719049049   -0.86686755261488
O           2.52129237751119   -2.27644548971874   -1.09227130799067
H           3.32933305170538   -1.77908733603538   -1.15541639605409
H          -1.30963245385305   -1.73941938345629    0.09201172928796
O          -2.06391770302928   -1.34654276248172    0.57275603960325
H          -2.48762965652889   -0.77780977820178   -0.08049108030756
O          -0.22770570838124    2.51109045260157    1.46414009921146
H          -0.18140197027316    2.38261479009744    0.47365763044622
H           0.56198660241076    3.00319691937989    1.69378836823297
O           0.04098658769528    1.97030756142418   -1.06561525111826
H          -0.71664839385858    1.46477913968749   -1.40687671516560
H           0.80666399596402    1.37528704633381   -1.20070105163538
O          -1.60092886741606   -0.03125331082139   -1.97502471885902
H          -1.61724039991747   -0.09711305554579   -2.93071595127000
H          -0.89532707205522   -0.64440134845460   -1.67094672589791
N          -0.30467701695278   -0.05922097104539    2.09633266211684
H          -1.12295744119873   -0.51171502163435    1.60667567882762
H          -0.30615455451996   -0.28431575440612    3.08505494538196
H           0.57516746326857   -0.44270611224363    1.62526968850818
H          -0.31922857754740    0.98759982612628    1.94006253235812
