    23
        -45.35387510  Gyration_radius:  2.34529921758 Dipole_moment: 5.298
 S          -1.77185773389204   -0.68622569376854   -0.88383282652407
O          -1.84641278875270   -0.92559466862467    0.53433188094063
O          -2.08760005327310    0.60657330641599   -1.36591199176122
O          -0.39405947318676   -1.12183668328990   -1.38977527369326
O          -2.75204372693581   -1.72120220565072   -1.55930896461687
H          -2.91737428756707   -2.41421451147973   -0.92388861104849
H           0.06085295046742   -1.65960253914415   -0.61621946558344
O           1.94450101816729   -0.17926433799132    1.33298430126877
H           2.83457673955119   -0.13054838046805    1.68286643770320
O          -0.40304889605659    2.61430192432878   -0.33948120420513
H          -1.10445311526722    2.15660467655343   -0.81990194705820
H          -0.48552376964856    2.31019443793094    0.58360755622450
O          -0.51487130747157    1.08998685087643    1.94049675701202
H           0.37075859281834    0.69871140515699    1.91553978961254
H          -1.11817779553199    0.42299185034243    1.58686717397964
O           0.49534023836190   -2.24774391112293    0.64892297515026
H          -0.31913001421360   -2.05547654354112    1.13460338439478
H           1.15172597206343   -1.57336398279751    0.96736690008047
N           1.80760632159816    0.99917623823266   -0.98303028074926
H           1.95085071517446    0.30303623732453    0.43271142821386
H           1.09586587555365    1.72168909960136   -0.81003037334273
H           2.60047461766395    1.44577707787949   -1.42576257469431
H           1.40199990040883    0.34603033328168   -1.64315506127721
