    23
        -45.35434855  Gyration_radius:  2.30670619562 Dipole_moment: 7.414
 S           1.20114254886991    0.92190042303040   -1.29703119699892
O           0.40819217568670    1.92620934535512   -1.93471511208313
O           2.52207428979811    0.65671234827612   -1.75446504903431
O           1.27550373665697    1.23040624136728    0.22197062028097
O           0.41151074778056   -0.42675876580817   -1.36764747170417
H          -0.56523070050285   -0.27364898622756   -1.49718501925019
H           0.41094026014349    1.69623951991163    0.45370151521729
O          -1.99985154019248   -0.26000761217404    1.16239789663571
H          -2.51239218689512   -0.28611827590479    1.97130004731256
O           2.61139900997797   -1.52247481016073   -0.08722168704746
H           2.74545171735679   -0.69730393349180   -0.57819772322233
H           2.52518900601011   -2.20281559904702   -0.75812324287501
O          -1.06708321879148    2.21157062579679    0.40551858999311
H          -1.57091460260315    1.40122779821899    0.61404709284194
H          -1.05675644779511    2.32115646644948   -0.55584703344700
O          -2.17701396547942   -0.23677216867606   -1.49813174917940
H          -2.30194008319256   -0.32251931544456   -0.53232147203439
H          -2.51173322659161   -1.04061222063041   -1.90009893921508
N           0.40362402920213   -1.07346102074470    1.82064758658181
H           0.98604263027280   -1.26062783484572    1.00240117826896
H          -1.07315083123502   -0.61376246937308    1.39208813891010
H           0.49783554747375   -1.87026951025325    2.44014710397874
H           0.83716108407188   -0.27827025559795    2.27676591606257
