    23
        -45.36480861  Gyration_radius:  2.34507865674 Dipole_moment: 3.667
 S           0.85223697793839    0.65377796034057    1.25698052496901
O           0.74848600122140    1.34809253688057   -0.00015578552279
O           0.32933787829583    1.36739697053019    2.38296326418081
O           0.14718895357520   -0.71942906679714    1.12384831497921
O           2.29591569212122    0.24017901753858    1.52534605454909
H           2.57060216322165   -0.31225649512227    0.71358290985860
H          -0.81471554962809   -0.58739345616618    0.76263769171071
O           2.80474379475866   -1.25954540249953   -0.45920806697893
H           3.02224899371802   -2.11402978073745   -0.07992375663119
O          -2.21460446563336    1.90412826949742    1.77542762191096
H          -1.26941833024168    1.84889864924416    2.02426957485668
H          -2.70379767208893    1.92985937658161    2.60023597260588
O          -2.13391975804870   -0.23034619898283    0.17913347761676
H          -1.88297293037831    0.12640805948430   -0.69846056348224
H          -2.35744973136697    0.55351805080059    0.72915640051755
O          -0.93063341208769    0.90005409445551   -1.95801084248426
H          -0.23954907842216    1.13261312509295   -1.29592537248121
H          -1.23143139282707    1.73240010586395   -2.32678604999116
N           0.51985603039781   -1.74867550882837   -1.72542246607345
H           0.12923815528200   -0.87549134647875   -2.06432528879543
H           0.51017641283239   -2.41045538960337   -2.49170913704745
H           1.94902885057883   -1.38923037191824   -0.97255118010536
H          -0.10056758313131   -2.09047317907116   -1.00110329813139
