    23
        -45.36935230  Gyration_radius:  2.59213504138 Dipole_moment: 5.541
 S          -1.57206409231312   -1.12888511040285    1.35091093862711
O          -0.63033457892625   -2.22774177519383    1.33742833148485
O          -1.06146418634921    0.07442184564512    1.98225799872386
O          -2.12387323328529   -0.85050455783208    0.02401039465480
O          -2.79220944394867   -1.60914841881777    2.25467487327209
H          -2.83225798063330   -2.54123288592324    2.06481178286387
H          -1.83010215938565    0.77089568439208   -0.27767798876048
O          -1.40097637318624    1.65503506502746   -0.21224799121448
H          -1.35559574785380    1.78383805096210    0.74290538693577
O           2.46978045228024    1.59995101242871   -2.94002147974534
H           2.84986023694131    0.88241284114330   -3.45208339430907
H           1.99611902325188    2.17101014826168   -3.54874799453055
O           0.07966545440765   -1.75365342525886   -1.14328069924640
H          -0.85508202997678   -1.48271687370856   -1.15550667032514
H           0.13512971285031   -2.16511066681626   -0.25764773317947
O           1.54148033647841    0.40134465075702    1.92366720642492
H           1.77301976624662    0.91765287348377    2.69671208976619
H           0.58628346255557    0.17455241082280    2.02502738375251
N           1.02858661430775    0.68142422677673   -0.69646407752462
H           0.77525440321016   -0.31735738243253   -0.95034845938192
H           1.63714194473097    1.09858170441604   -1.40954551834156
H           0.11236974289105    1.20252133849347   -0.60283380707066
H           1.46926868570698    0.66270923377395    0.24399941711794
