    23
        -45.37659828  Gyration_radius:  2.32023491544 Dipole_moment: 4.380
 S          -0.71797265399550    0.13209041083710    1.75091762314318
O          -0.94513898649334   -1.22351992223813    1.27022580577630
O          -1.92304473673306    0.87920652952280    1.99094900732637
O          -0.00939249249826   -0.03390947291768    3.17871777308914
O           0.27923604466181    0.82032596802149    0.94385600905817
H           1.69392037938262    0.03520261387905    0.68612415303559
H          -0.74502984433761   -0.05224210678106    3.78315359438511
O           2.45112139832600   -0.54509308910980    0.42891194888254
H           2.83871372867595   -0.84414526330182    1.25243492451378
O          -0.53713384295978    0.00528475271875   -2.45924361508452
H           0.08594134186292    0.74732536360210   -2.29980271817854
H          -1.32303472677223    0.24491848689257   -1.92852555449899
O           1.10234762038062    1.84928111780902   -1.41160555441630
H           0.71768550021368    1.65857743407857   -0.53729864356191
H           2.02710449823773    1.60239553211975   -1.34109741157303
O          -2.33553498344812    0.89704731264856   -0.64095212804333
H          -2.24931298477359    0.80125401863233    0.32541882403299
H          -2.46302359814718    1.83620811698308   -0.79569092272346
N           0.42427622427155   -1.79395171983307   -0.85597244445455
H           0.40496343716972   -2.75777597385052   -1.16838573013114
H           0.04946275147733   -1.11414284677183   -1.61216463784971
H          -0.19876935728913   -1.64871514815461   -0.00254718364633
H           1.37261528278868   -1.49562214478915   -0.55742313908149
