    23
        -45.37482812  Gyration_radius:  2.38120488371 Dipole_moment: 1.055
 S           1.26799181555738   -0.65136891113862    0.98683128191154
O           1.76184214600013    0.70841231675181    0.99944873167339
O           0.00588613358965   -0.78689197998708    1.71146941548567
O           1.17555876609423   -1.21423126347570   -0.34902651546022
O           2.33887502894062   -1.52385779126838    1.76480043435428
H           2.55371082844441   -0.96592700426876    2.50577552718168
H           1.46468795363274   -0.14136140902056   -1.60775663355273
O           1.47679270486602    0.49691904862213   -2.35580514782580
H           2.40086929088223    0.66992263450954   -2.54003493329715
O          -2.62785308092847   -0.02449084271797    2.40032450512035
H          -1.71635017329682   -0.35037454895746    2.40219327986377
H          -2.97829838208436   -0.19708572731715    3.27482215995241
O           0.25858665576574    2.20384429422023   -0.61408225654579
H           0.85554563834962    1.86665212761188    0.08623696915711
H           0.64678245697423    1.84797411469873   -1.43462627723253
O          -0.86373131272644   -1.27632628640487   -2.16852631600974
H          -0.39120752966578   -0.73573029679404   -2.81086365044040
H          -0.17160044299631   -1.59459800161705   -1.56303992655868
N          -1.52520326259032    0.34202919523303   -0.14980195696871
H          -0.96838440114343   -0.16515213781156    0.58257437174865
H          -1.54073274963580   -0.26502447066475   -1.00389394802500
H          -2.44739323149601    0.52462711817911    0.24199846945379
H          -0.97637485220479    1.23203983189091   -0.35901756378175
