    23
        -45.36312923  Gyration_radius:  2.42114441552 Dipole_moment: 7.790
 S           0.30375109744609    1.44728487668043    1.78681999287476
O           1.46109160113119    1.19033030612772    0.91375221708556
O           0.58516524580295    2.20878659713134    2.95142368942524
O          -0.70657750319578    2.29748875751297    0.85784645214843
O          -0.42686845833407    0.19449479431711    2.02930336409638
H           0.47174839225642   -1.01083369030747    1.40116898053141
H          -0.27703012757542    2.40151531016599    0.00419369637642
O           1.08912661736476   -1.45419233860379    0.76356723763430
H           1.84125181200345   -0.84828750071416    0.76214979874109
O          -2.40699142229897    0.12646949976808    0.34284297784918
H          -2.67716435639989    1.04764916764207    0.30627457449407
H          -1.77360305717228    0.08929631308179    1.10410645537371
O           0.83594792972265    1.79930113879371   -1.45850948752655
H           1.21675699535628    1.54663015865186   -0.56386153505049
H           1.50041458073105    2.33452651460135   -1.89376525337631
O           0.26310934681762   -3.24951155359297   -1.35464527795630
H           0.66029050670288   -2.96078797129424   -0.52173922696227
H           0.18978111159155   -4.20315290069208   -1.30559387072724
N          -0.43921378999094   -0.58712158914790   -1.25977229389409
H          -0.56290833905085   -1.35376606152850   -1.91991031937091
H          -0.02180643324564    0.25696546145346   -1.68119802468379
H          -1.34293360393141   -0.33335777039872   -0.76145129474007
H           0.21666185424770   -0.93972751008980   -0.50300286212222
