    23
        -45.34952648  Gyration_radius:  2.51205300823 Dipole_moment: 9.828
 S           1.24285283019759   -0.59152230570934    2.45941772877537
O           0.47327965773162   -1.68502243376111    1.93658530020823
O           2.36317644738677   -0.89547983990267    3.26696388261093
O           1.66916007391395    0.29790872042734    1.22159782494525
O           0.31674154396614    0.40116695800018    3.20291365654778
H          -0.34153396042459    0.73105238439201    2.53531250059433
H           1.91701005562793   -0.29468399658163    0.45525190225889
O          -0.21167622817436   -0.58022787719135   -2.20594019147495
H          -0.55894449994033   -0.97640705231358   -3.00591422282208
O          -0.95208597367090    1.12178447687201    1.03963622517397
H          -1.31342204020469    0.23746407741877    0.75061711362136
H          -0.03175747161516    1.13701130453627    0.74616206165242
O           2.13669450718416   -1.04457458639282   -0.93233483213150
H           1.30005013620700   -0.94011041569570   -1.42838635725215
H           2.82925549320210   -0.64262663594867   -1.46086207402269
O          -1.50428512951548   -1.29451603792931    0.19956728798631
H          -1.04653359234970   -1.30093971126975   -0.65458430524330
H          -0.87577025797055   -1.67293909668627    0.84389625464917
N          -1.53490338535960    1.70752180019953   -1.80575481007379
H          -0.67513546877557    0.29905128467104   -2.09076203522059
H          -1.54148892570609    1.78303903112934   -0.78963991776138
H          -1.16166180596112    2.57203779745525   -2.17770445930852
H          -2.49902200515911    1.63101215381400   -2.10603852289425
