    23
        -45.34113966  Gyration_radius:  2.51774319572 Dipole_moment: 9.416
 S           0.06273060683764    2.85375326843980   -0.24317795462497
O          -0.57459973607666    3.39624813334863   -1.39246296241792
O           0.47410739658314    3.68672701932301    0.81809640248164
O          -0.86706502634165    1.71938073925466    0.35250090663876
O           1.30134299617069    1.99520071776223   -0.72601510488032
H           0.91452105968192    1.45234154879667   -1.43737365282305
H          -1.07992182231443    1.15894522705295   -0.41059547768575
O           0.41768907281069   -1.89339226828173   -1.05547300231809
H           0.66725643318257   -2.73235756250213   -1.44413989390002
O           2.01160460425243   -0.36834986989718    0.74488726120748
H           2.06739302833210    0.51824492790764    0.37134564080272
H           1.59600350227220   -0.92783310689998    0.07138015102232
O          -0.42915933516484    0.42680746418888   -1.95529103023581
H          -0.79588031613233    0.40002954552928   -2.84076502748659
H          -0.13167036106507   -0.48583687126804   -1.71875456021762
O          -0.15831976440499   -0.18690287078636    2.40600318240637
H           0.73665665970626   -0.27160348326465    2.02432423755640
H          -0.49878511339804    0.65006987573478    2.07432460890553
N          -1.22930182847134   -2.32222077601373    0.92368650847020
H          -2.22014950801015   -2.19786873510109    0.75784711053239
H          -0.23205188984929   -2.09772467687850   -0.29726465998388
H          -0.92611597256849   -1.57419023477017    1.56297870924919
H          -1.10628469604272   -3.19946799163592    1.41393858728627
