    23
        -45.37525944  Gyration_radius:  2.30051534263 Dipole_moment: 5.040
 S           0.57066827522730   -1.09527460570150    1.11506949583079
O          -0.09840720066318   -1.71123762777534   -0.03528965173893
O          -0.07812158552564   -1.35589259587702    2.36483339555486
O           2.00705634463296   -1.78377028241234    1.19002747118901
O           0.85701478242745    0.30770088641203    0.84336230177231
H           2.09548561532120    0.56638065526451   -0.24360680546704
H           1.86699092764595   -2.54414484944824    1.74589244658112
O           2.59452473551343    0.76533682888128   -1.06895058958389
H           2.93240681681533    1.65685055177490   -0.96894548298022
O          -1.54366279139950    1.54805287104711   -1.39834201029413
H          -2.05064100636039    0.87506124189951   -0.86326237854026
H          -1.21729562443316    2.17860941810452   -0.75214925526132
O          -2.44001201335224   -0.29247190357474    0.22426245957007
H          -1.75443372175255   -0.97668343320965    0.18019212622638
H          -2.26185247279072    0.20646641974462    1.04750687695902
O          -1.30319512389555    1.09668736156080    2.25148432698994
H          -1.25212924046835    0.39935386158591    2.91389380668684
H          -0.45403505400609    1.02974405115052    1.78365313397018
N           0.31254315711939   -0.17781652941670   -2.10095938099504
H           0.15756017459577   -0.89247087520590   -1.32547657146225
H           0.21515703979004   -0.60364867524771   -3.01604474600410
H          -0.41992350126227    0.58133765933618   -1.93718495569086
H           1.26430146678608    0.22182959113107   -1.94996600332555
