    23
        -45.35437492  Gyration_radius:  2.43187421601 Dipole_moment: 4.792
 S           0.15664116514480    1.12474260307816    2.05305593642233
O          -0.00344638715798   -0.30196576409558    1.89802524795873
O          -0.08307712720795    1.66201184563879    3.33775880462735
O           1.58535202513366    1.48389921585887    1.53078504245564
O          -0.73628178388138    1.84685697556984    1.01291512757504
H          -0.28083627190242    1.72521942130710    0.12070021714990
H           2.12498394110198    0.64253800769511    1.44410454030102
O           0.66561938004926   -1.11324191134613   -0.51779264367009
H           0.29341562827047   -0.94127051449261    0.37416404955129
O           0.50510278883698    1.38562748919619   -1.18616702165455
H           1.37190948824797    1.78589362499130   -1.08655004662960
H           0.62778125433127    0.39643465653634   -1.06090489312462
O          -2.35060210500234    0.79818266889838   -1.29051767933135
H          -1.56018147600791    1.19343092768866   -1.67252874208594
H          -2.39750318107198    1.12486007627191   -0.38757251668539
O           2.74713509218601   -0.80551231204163    1.21269188285535
H           2.25948364715928   -1.10028987105321    0.42263531851491
H           2.38811508668910   -1.31417829299668    1.94534145405468
N          -1.55181933042413   -1.99049182043901   -1.69222124158828
H          -2.04167255306255   -1.09858103175773   -1.61694916089332
H          -0.07585920318794   -1.55756742351206   -1.01603195588602
H          -2.07504632666262   -2.67478842987975   -1.16078191562101
H          -1.56921373171424   -2.27181013171268   -2.66415980516935
