    23
        -45.34494581  Gyration_radius:  2.55885024132 Dipole_moment: 6.477
 S           0.39085495352290    0.14730323301383   -2.47515505404729
O          -0.57938459957172   -0.01104827845314   -3.49856931449930
O           1.77015819192227    0.19142852696547   -2.81811207962132
O           0.07144828703595    1.48238013589053   -1.67832757960318
O           0.19328227994858   -0.93874507562314   -1.37770625011010
H          -0.68504687310411   -0.70176573556451   -0.95544115258653
H          -0.85495115926118    1.43209896100959   -1.41721278036711
O          -0.73145489278717    0.35745505652954    2.05943486587840
H          -0.55316657782698    1.22728541053601    2.41876776086728
O          -2.84979393688891   -1.51105566079678    1.66877425366902
H          -2.16855617335366   -0.96776829895619    2.08946902199444
H          -2.94013529282305   -2.30407913105188    2.19786549014383
O           2.71491582334190    1.33461908009670   -0.54355841540172
H           2.56807519050453    0.86510690110321   -1.38253469407506
H           2.26852078822111    2.17689277160905   -0.65038481857964
O          -1.87876457364148    0.13416469022976   -0.32945121552465
H          -1.48128669998658    0.33185160388138    0.55652361144594
H          -2.60107787787951   -0.47234952005129   -0.11818943785598
N           1.56456170097610   -0.59552030776581    1.25198885046415
H           1.33599707291578   -1.28531451193353    0.54433237578136
H           0.17111001775942   -0.03457764458880    1.80346569496473
H           2.22358027304375   -1.01508450956148    1.89610206687116
H           2.05111406791478    0.15672231346607    0.75791879022664
