    23
        -45.34698628  Gyration_radius:  2.44078511239 Dipole_moment: 3.375
 S           0.86959135839381    0.96434605931007   -1.88338188826440
O          -0.20711781613142    1.69661822677465   -2.46541591663736
O           1.51677716597220    1.51706525244503   -0.73855728655072
O           0.40523665185997   -0.47736927186090   -1.60069488741886
O           1.97510195063266    0.72582903272918   -2.97341692092577
H           1.54578990572700    0.62963456012618   -3.82168424680428
H          -0.56131542207765   -0.35928760365612   -1.22407382614121
O          -0.63405330558527    1.53113098908997    1.05416843654565
H           0.16597139746856    1.80441143968707    0.58733509072262
O          -1.82834388335566    0.17770690503731   -0.71566647007582
H          -1.45025800500431    0.75422036594861    0.05477807677356
H          -2.06405516290365    0.80553354163193   -1.40643813855694
O          -2.11356817497391   -1.99875648624621    1.13265146336274
H          -2.10510433926012   -1.37147803860349    0.39894170784487
H          -2.93975423697988   -1.85798426496941    1.59836461361012
O           2.39558238261986   -0.81810458772095    0.48210463620749
H           2.30386266893330    0.09224372568323    0.16824592337893
H           1.95965459119184   -1.36323164325395   -0.17779236633791
N           0.18352309487332   -0.56683784671499    2.39125884267892
H           0.31755635192761   -0.61095899600233    3.39241609643931
H           1.07456939550213   -0.77155252867935    1.94157578629386
H          -0.47357864281376   -1.29529790370142    2.12332599990892
H          -0.33606793599513    0.79211907291024    1.68195526392952
