    23
        -45.35857791  Gyration_radius:  2.41914326242 Dipole_moment: 4.760
 S          -0.20412743857860    1.26101854164265   -0.59127446714974
O           1.18041258848936    1.10326059258748   -0.23437325684664
O          -0.44972038307419    1.75735967761828   -1.91053289822357
O          -0.88622473466693   -0.14583403344509   -0.44487167800122
O          -0.96381645558452    2.10319779395287    0.41219953731822
H          -0.76517845407122    1.82887059686583    1.40282693882784
H          -0.25670127214691   -0.74262800049730   -0.94177657126935
O          -0.63938819573633    1.39304201083246    2.78517087214281
H          -1.43036734981636    1.66635582237854    3.25521633709726
O           1.76148183058951   -1.24443698016194    1.07965118211441
H           1.81245432223029   -1.78070017994165    0.28398023667489
H           1.70238205567046   -0.32296348349115    0.77718370386926
O           0.09063738049647    0.12049551874067   -3.96155742675868
H          -0.71464935628821   -0.01030013270143   -4.46496386803215
H          -0.09052690081542    0.85422286146722   -3.34136077280773
O           1.03629162361841   -1.15877218724161   -1.82719831443956
H           1.60253590180792   -0.43301432463346   -1.53190141448907
H           0.76461716891825   -0.91265407875335   -2.73798228039802
N          -0.75090013848995   -1.17905302189112    2.42325582382247
H          -1.36029634370286   -1.30932156791132    1.62450265334626
H           0.20410422238176   -1.35012377886990    2.09880185883459
H          -0.66498964890907    0.37355938909539    2.72015092003655
H          -0.97803043231553   -1.87158101565015    3.12485286430096
