    23
        -45.36716502  Gyration_radius:  2.26731557581 Dipole_moment: 4.151
 S          -1.95688400451518   -0.42390727805808   -0.02619402808928
O          -3.22961839007638    0.12551205284209    0.31417527395358
O          -0.89469741691663   -0.13942660980625    0.95009718129397
O          -2.11486535542032   -2.02701681203109    0.04129107277234
O          -1.50192621605267   -0.12122717143966   -1.37251940736492
H           0.04000241205719   -0.31554446738538   -1.88430201207083
H          -3.05961355430526   -2.14473135850555    0.02581123108565
O           0.77795751143546   -2.06066729972635    0.21283951374388
H           0.26208104310885   -2.84231255083315    0.00559694424267
O           1.60549359260904    1.64955434378178   -0.63939734854945
H           1.80069071450874    1.20168820361528    0.33236480402215
H           0.68607490010346    2.05976505438580   -0.52918041005750
O           1.02465071151102   -0.42058659861176   -1.90234404145632
H           1.18413901745959   -1.13071687561241   -1.24591021580560
H           1.44186699001418    0.80364909893915   -1.26724341315830
O          -0.85286003944441    2.28368030551927   -0.18056198916997
H          -0.99983946243334    1.50793165921726    0.39218336423795
H          -1.40773608239629    2.11706849830235   -0.94936053462882
N           1.81439647017608    0.47674772851077    1.58499822146810
H           0.81670743298022    0.30567132093367    1.71035626923246
H           0.12296512614340   -1.41045469238076    0.54329576269871
H           2.18135382462005    0.93212487506464    2.40997540073009
H           2.25966078491224   -0.42680139659345    1.47402836090727
