    23
        -45.36995850  Gyration_radius:  2.60115920055 Dipole_moment: 2.418
 S          -1.19298641574508   -1.65698043566321   -1.10411946778584
O          -2.14972768962487   -0.85239076727410   -0.37376800928576
O          -0.38938583748288   -0.86098612292836   -2.02891606864027
O          -0.36521151066528   -2.48166539468495   -0.23835909731327
O          -2.04135869755272   -2.65821174357036   -2.00289278172500
H          -1.38132251137520   -3.23038595744442   -2.38454898318083
H          -0.13163959892356   -1.51181918211948    0.99620137693827
O          -0.10771939050607   -0.75966385859018    1.64995840551573
H          -1.01734432488653   -0.68001305288642    1.94899864145429
O          -2.37040545170805    1.78520138617128   -0.57475280544154
H          -2.85563732728488    1.98532727878301   -1.37626918414176
H          -2.42900691713494    0.80925850887110   -0.46459479602276
O           2.46567845307576    0.15367326568878    2.16429962186856
H           1.62204833589054   -0.30991041814525    2.03453571064754
H           2.50072311076832    0.40058861372348    3.08965973852108
O           2.73823472883620    1.87615796420687    0.08915628519469
H           3.43934227723595    1.55199601718266   -0.47827528829092
H           2.75239577295048    1.31122441853035    0.88955473699013
N           0.20139358000187    1.05603154162489   -0.37185295181832
H          -0.62011700943676    1.68578107014004   -0.43746934493422
H           0.10666173952700    0.35860187971597   -1.16350303969751
H           1.12205448512029    1.54063337890587   -0.35997277364310
H           0.10333019888531    0.48755161978985    0.49693008476262
