    23
        -45.36141586  Gyration_radius:  2.46915684095 Dipole_moment: 4.304
 S           0.71661306530666    0.81617467219484    0.82041613402717
O           1.28995529648157    1.13920332402781    2.10058098008069
O           1.48664020434392   -0.14185920242129    0.03916115153080
O          -0.68648645210599    0.37566971552175    0.91840668515330
O           0.67867322890753    2.13226992131069   -0.04724743864781
H           0.49649289762919    2.84273227617019    0.60566650649104
H          -1.01918741465589   -0.96432335656176    0.85069359487259
O          -1.82987507111941   -1.88489414332491   -1.78033980110751
H          -2.73951381889449   -1.61663806864857   -1.92104465711737
O          -1.20485376240416   -2.01430898761263    0.67029513756298
H          -1.51950851566694   -2.04397028040049   -0.31703650038668
H          -0.26936689927630   -2.42602032921927    0.67969642277661
O           1.24886945687694   -2.68724414569036    0.50703308398247
H           1.49826162131986   -1.73522902970814    0.40030724666792
H           1.51754353226148   -3.12719478428534   -0.30263588698646
O           0.44282236345582    3.59789763543962    2.12644737123731
H           1.16857326235964    4.18630522345223    2.34709959810249
H           0.71937046817864    2.70128488392661    2.41795794024315
N          -0.35393585669923    0.25118754526248   -2.06714550233098
H          -0.84566668199616    1.03941165678396   -1.66157853426040
H           0.43483844583822    0.08290614726464   -1.44183076502133
H          -1.25261717621025   -1.07380306300303   -1.98626915801660
H           0.02235777578972    0.55044236935858   -2.95863360898676
