    23
        -45.37126179  Gyration_radius:  2.37019808725 Dipole_moment: 7.035
 S          -0.71856384189670   -0.86204291161429   -1.35492687741920
O          -0.99997907244624   -0.88478499933058    0.09877656035395
O          -1.84544997110758   -0.44950598009944   -2.13207643077125
O           0.48744724524849   -0.05484876782965   -1.59521408393118
O          -0.34782026912905   -2.33109713194232   -1.73990454799959
H           0.44584487163036   -2.52303095114887   -1.19959470370709
H          -2.54537066685266    1.09318179002293   -1.09246133932018
O          -2.42438445715773    1.32947735972478   -0.16171231802270
H          -2.04665883163107    0.50699875068924    0.19921457019876
O           1.62545900880483   -2.80843473699801    0.02104184104967
H           1.42886238783573   -3.67399053303367    0.38582922458750
H           1.49003724118289   -2.16241956724827    0.73634356430448
O           0.80495349551541   -0.90686460872652    1.87419722892544
H           0.05574202451201   -0.91787716459936    1.19776355725604
H           0.38743908546832   -1.04515341009701    2.72585257974967
O          -0.57184449996486    3.10962041418390    0.40149183170345
H          -0.59650353588220    3.72942537326472   -0.32945814188074
H          -1.33769625595803    2.49248376291894    0.25212281226837
N           1.36924645275024    1.29232689504272    0.36422193534448
H           1.31247509660118    0.63377020314497    1.15856100832237
H           1.03679484811869    0.71786943785252   -0.51336688912450
H           0.67586437552638    2.08016758471759    0.47005006729615
H           2.31410525882060    1.63472918119598    0.23324853087599
