    23
        -45.36935171  Gyration_radius:  2.59230107832 Dipole_moment: 5.553
 S          -1.57216313276679    1.03628149633505    1.42363405723495
O          -2.56976283029869    0.55007188736852    0.49478353540476
O          -0.82719284081259   -0.01640622411384    2.08988672278031
O          -0.68233412982476    2.02827812059789    0.81776681890442
O          -2.37398143388600    1.79339717535338    2.57254366896365
H          -3.09554019147653    2.18764187544082    2.09255798764231
H           0.87760222667482    1.46685304322667    1.05279773345645
O           1.61163790837546    0.82984193856256    1.21328670622166
H           1.27587100446086    0.32402332863043    1.96311910792692
O           2.68565137094033   -1.22078048717050   -2.93145138219479
H           2.26650058848976   -1.12287164829028   -3.78939678037440
H           3.49150754994779   -0.69976560520845   -2.94181020106319
O          -0.60198961835836   -2.29022465999327    0.80097744966895
H          -0.49648368747596   -2.97220299848804    1.46545586420074
H          -0.81882283911532   -1.46293841815756    1.29368995311148
O          -1.00911449438923    0.93621150340022   -1.57752693640436
H          -1.79092412719802    0.60449526870364   -1.09206514551066
H          -0.72902627540269    1.66038408569758   -0.99069792473664
N           0.89128207020458   -0.74506764601305   -0.80827101185479
H           1.34188180579389   -0.15370173112875   -0.05549127108002
H           0.41577644652387   -1.53770141259186   -0.33334123466048
H           0.13955705529294   -0.13914104453572   -1.24860492776156
H           1.57006759430418   -1.05667785761238   -1.51184278987523
