    23
        -45.34232153  Gyration_radius:  2.44442433159 Dipole_moment: 6.787
 S          -0.10781460294319   -0.67997945651329   -2.32038491261005
O           0.07898700021228   -1.95450063386967   -2.91693900135370
O          -0.73777109550476    0.35858933597469   -3.05400892348586
O          -0.86576863211887   -0.85828478259849   -0.96190010825439
O           1.29593830077098   -0.13509536557760   -1.83814929420278
H           1.68108757665161   -0.81622609255998   -1.27200285268024
H          -0.23150990851600   -1.41366041255076   -0.43624200158219
O           0.91242707554308   -0.47586365479447    2.25147105515766
H           1.72240034695951   -0.17502977470038    2.66505412359419
O           0.01183915919178    2.36156441680823   -1.36781197764151
H           0.91792127183080    2.41683922676919   -1.67788752076423
H          -0.43522463118895    1.76877817787010   -1.99213516529630
O          -2.34162726088563   -0.47134262667846    1.48272568792486
H          -1.62085496296179   -0.87583052348063    1.97200830982451
H          -2.12488433097306   -0.56307224110383    0.54826835817250
O           1.15932691902894   -1.96696145704354    0.17550989958146
H           1.16172975883146   -2.88980805331850    0.43738710676114
H           1.12689672238364   -1.41687222140788    1.02203938256363
N          -0.33449188225017    1.65325878650285    1.43045859854600
H          -0.17483265880688    1.88594862720524    0.44893878397547
H          -0.21569741037614    2.50357441857598    1.96706722640072
H          -1.30882259266753    1.37195654502337    1.51015443685496
H           0.43074583779020    0.37201774146696    1.92637877851350
