    23
        -45.35545901  Gyration_radius:  2.42376750138 Dipole_moment: 5.689
 S           1.70531144733384   -1.13446761559767    1.42077142737528
O           1.24988018765943   -2.19505247357557    0.56050603255399
O           2.36728961032368   -1.48370625659490    2.61981865875752
O           2.60773497967215   -0.16873369182743    0.61011214249181
O           0.46063055292460   -0.22998665717117    1.73467670299820
H          -0.34376171944310   -0.60571416342932    1.27572571117950
H           2.11187656965478    0.12465536664136   -0.20596136096402
O           1.25402632884279    0.74533928732323   -1.40447859195163
H           1.81565310888905    1.30398590239570   -1.94429496397073
O          -2.84274657876994    1.09903718074198   -0.33719787668779
H          -3.17299950933635    0.86346219350552   -1.20589860200667
H          -2.55743605154736    0.27156717340197    0.07933674780434
O          -1.57836899526166   -1.24973986087263    0.47374437018257
H          -1.70627800591585   -2.12008258292581    0.85657230932767
H          -1.12842682015837   -1.40388974913057   -0.41155127954228
O          -0.13060392032836   -1.63355842673982   -1.64442086922008
H           0.28866272926016   -0.77974445587989   -1.83186808518718
H           0.49270879714669   -2.08574281222885   -1.04522448506558
N          -0.22188887077553    2.22400120625620    0.12021297298839
H           0.64985682169510    1.37075983924698   -0.85260027869883
H          -1.20456508946154    2.01711161131322   -0.06369840108549
H          -0.00362662940673    1.84145386551688    1.03426384609266
H          -0.11292893299077    3.22904508965091    0.16145387262274
