    23
        -45.37329784  Gyration_radius:  2.38418945858 Dipole_moment: 4.780
 S          -1.21364271829226    0.24345185199170   -1.53932937351576
O          -0.32080742601803   -0.91466992230821   -1.64185047012225
O          -2.11533317360907    0.14305047482221   -0.41771640600094
O          -0.45807331384308    1.48404331103510   -1.57751838377174
O          -2.10317477726696    0.22085792907925   -2.84816832766218
H          -1.45945817041958    0.38084815151422   -3.53081770233577
H           0.48850212079060    1.90164438559532   -0.37755983807294
O           1.03168931776914    2.17914430942750    0.41015700476623
H           1.21914325518364    3.10888914957212    0.27043906858514
O          -0.75929515145060    0.57457923477141    1.80728476352496
H          -0.22603822041902    1.34603104343407    1.56170046580198
H          -1.43403594335594    0.48889114584146    1.09937148734488
O           2.94708666707525    0.32954374005988    0.95327970002583
H           2.34312424110251    1.05425503098872    0.68768911419358
H           3.34520666837566    0.59861362280398    1.78252683241627
O          -1.56919966819786   -2.64262019781243    0.10104105993893
H          -1.23867603987087   -2.22639331850565   -0.70819333718854
H          -2.28366114646335   -2.06722273794382    0.38671210791263
N           0.78566026118459   -1.26367489033432    0.72812198895175
H           1.76446716442587   -0.93129455361421    0.82656163704609
H           0.15478799326508   -0.62523253544776    1.30646842727580
H           0.46364680852451   -1.14742990998881   -0.27154324791449
H           0.63808125152207   -2.23530532494825    0.99134342870934
