    23
        -45.36689214  Gyration_radius:  2.38200842766 Dipole_moment: 6.680
 S           0.78608155902729    1.97337413032623    0.35753573848155
O          -0.17606278797910    2.67306522663480    1.17780447161165
O           1.14712890665284    0.65766726569965    0.84420648822453
O           0.40815480189621    1.93589956599010   -1.05314346733025
O           2.12531167751030    2.83965319515277    0.42496221628827
H           1.77794870121697    3.72581194844081    0.42712471138752
H          -0.53976660860167    0.84446794018556   -1.52450442524724
O          -1.18552680989960    0.12991364569852   -1.82896118032224
H          -1.31034202927017    0.29090370101336   -2.76555173360883
O          -1.89969459098074    0.68255196604979    0.94544569373011
H          -1.31135800077347    1.43991965203627    1.14546580060464
H          -1.93914516244117    0.62801806384189   -0.01580894140968
O          -1.24142289199494   -1.74745222640729    1.68644305998252
H          -1.37955363815810   -0.77204750315200    1.55509180565413
H          -2.09612520002205   -2.09224344078732    1.95028333824441
O           2.38657918456513   -1.21838089214746   -0.35511312643192
H           2.91928371316575   -1.60199160854172    0.34423624545670
H           2.00216928830371   -0.38645975296779    0.04551588002389
N          -0.09895292778710   -2.02912599536185   -0.68560009423964
H          -0.24536633758360   -2.91328108212225   -1.15937009670605
H          -0.53266458938268   -1.23079532166485   -1.21648940281098
H          -0.53291981389390   -2.02400659324005    0.28000511996980
H           0.93624355643713   -1.80546191468092   -0.57957812154994
