    23
        -45.37093978  Gyration_radius:  2.49865957191 Dipole_moment: 4.390
 S           0.54972264440297   -1.52544584787159   -1.08831151719548
O           1.66727108396332   -2.25162962821097   -0.53138998495781
O          -0.70358397773527   -1.73512560705208   -0.40462903643558
O           0.84587766157918   -0.09483099659877   -1.25394458398447
O           0.34793267172444   -2.07975095944779   -2.57390670576053
H           1.22656080198384   -2.33733969254858   -2.83753912995330
H           1.35793717646878   -1.94936146933125    1.11215306084550
O           0.93262108272506   -1.68892689973048    1.95736008592780
H           0.12574816202354   -2.20988112469113    1.98761277397664
O          -2.32549180155309    0.25620408212040    0.38875250762312
H          -2.00322378344355   -0.64741192443815    0.21445595955621
H          -2.30363382356026    0.66198301882512   -0.49910599144691
O           1.05323149619480    3.33470572820086    1.78465997374827
H           0.51254317875935    4.02550209175695    1.39491435364860
H           1.96768388881910    3.52244262531856    1.56226553937047
O          -1.53451172755819    0.69902719887214   -2.17580978893293
H          -0.61675150221473    0.47780450068855   -1.92190806385262
H          -1.83990935285901   -0.04823088007477   -2.69355805804896
N           0.15437956353046    0.74589702417356    1.14307827305846
H           0.47496129207872   -0.08353712791634    1.69508274721800
H           0.46899434260078    1.64109489539415    1.53611273858651
H           0.54088818608814    0.59029844732231    0.17939943191332
H          -0.89924725404090    0.69651252523777    1.02425541509404
