    23
        -45.36206585  Gyration_radius:  2.31796676219 Dipole_moment: 1.164
 S          -0.58597935154038   -0.07361381560430   -1.58488636645972
O          -1.27681597592183   -1.07877113753108   -2.34794755209093
O          -1.35480984971279    0.41378459021115   -0.44756881217938
O           0.75619622639276   -0.48362450220399   -1.16094762164892
O          -0.35654868039910    1.16042291341964   -2.56223769005773
H          -0.86122636594690    0.92251564591367   -3.33457218451347
H           0.74226012370407   -1.48690767908132   -0.07331105664305
O          -0.04277189756596    1.58292859855916    1.57602364598838
H          -0.65766968300718    1.25863365185956    0.89032048994607
O           0.48742196070750   -2.11650942758588    0.70945297623180
H           0.58045909057169   -1.51854936028575    1.59417110119272
H          -0.51972733382224   -2.26588497297708    0.55080021524305
O          -1.97162490076574   -2.07883153667352    0.07689274348946
H          -1.98298294557410   -2.27384166748995   -0.87197271061928
H          -2.01647819128068   -1.10017824100725    0.08927451847525
O           0.59447105213261   -0.61538711413040    2.69840328172127
H           0.39673026928200    0.30462096571584    2.29920133540285
H          -0.10593228655408   -0.78910293155354    3.33050940749291
N           1.75848858391432    2.10917014939291   -0.36545373932755
H           0.71867176058316    1.92410705699208    1.05290651676572
H           1.55265832318198    1.19203480461195   -0.75622540512954
H           1.38056282889563    2.79139449939392   -1.01142072869111
H           2.76464724271926    2.22158949004084   -0.35141237457878
