    23
        -45.34557590  Gyration_radius:  2.51880209818 Dipole_moment: 6.369
 S           2.03718460838925   -0.03778748879375   -0.49322062749077
O           1.58715343773904   -0.45009457611874    0.79490821408371
O           2.75688408567655   -0.96825328665911   -1.28575070259351
O           0.82374795972292    0.48018063366484   -1.33267350239843
O           2.89762839793776    1.26520539933141   -0.32610477823234
H           2.35652314305026    1.86905751214998    0.20032935992940
H           0.46041722418911    1.22251372853254   -0.79344071118343
O          -2.65869596014776   -0.29726896379711    0.79099687320740
H          -3.23361492079317   -0.75444109015643    1.40687382563437
O           0.50962663266821   -2.22215634306337   -2.33603992989852
H           1.41059864288964   -2.00912046333261   -2.05593572992578
H           0.18560467822679   -1.43324585490188   -2.77602525126642
O           0.49516819227862    2.45107373748425    0.31671880890669
H           0.23367697631663    3.32105349266524    0.00519653823087
H          -0.20026583693773    2.17544650255859    0.98228964934947
O          -1.50810055896213    1.81406240460323    1.84905218830122
H          -2.22879066890074    2.44587133241441    1.88160140003974
H          -1.89523259811292    0.98218413250772    1.46419001448886
N          -0.76250382880040   -2.07251264851887    0.32546163870929
H           0.05118412169587   -1.58618566673766    0.69597291957477
H          -0.55209693638661   -2.26204364359898   -0.65342112190631
H          -0.81913419866272   -2.96802263917955    0.79588087413374
H          -1.94696260310285   -0.96551619108360    0.54314006032519
