    23
        -45.36415673  Gyration_radius:  2.6471762329 Dipole_moment: 5.742
 S           1.70280778201824    0.93119359797442   -1.79135487646166
O           2.33144413443908    0.13325896061256   -0.74337773505357
O           2.60517126832391    1.62787140211542   -2.64898160729307
O           0.95384169008157   -0.15617973130525   -2.74300625089888
O           0.60006490435417    1.72700869978150   -1.24717121311762
H          -0.75620423920941    0.78396537097429   -1.24785409072488
H           1.58086009609513   -0.20554139710763   -3.45667931903880
O          -1.31446467720403   -0.02677234386276   -1.15659161890257
H          -1.00895459087304   -0.58693598826776   -1.87646081788144
O           0.64873564535357    2.40969111440982    1.32902971132401
H           1.47579483402370    2.86135960433159    1.50273843523202
H           0.58249415855745    2.33689958106199    0.35237056681770
O          -2.72146670319930   -1.40163616358411    0.81779548096694
H          -3.47025219633420   -1.87681906131322    0.45544193792590
H          -2.38666416770841   -0.83082768657178    0.10656277949725
O          -0.66126456092555   -2.26111813664350    2.42186468325293
H          -1.45860825689024   -2.07049790220285    1.89277825919192
H          -0.93955577748052   -2.27300234423689    3.33842987785628
N           0.45161248581605   -0.24691082069511    0.96802655379506
H           1.32358835616419   -0.24891689162761    0.35240799137523
H           0.35912338863051   -1.03806979740472    1.62553004408464
H           0.44941737788735    0.67918551655243    1.43916977162716
H          -0.34752095182386   -0.26720557317743    0.30933143672861
