    23
        -45.34233026  Gyration_radius:  2.4447097198 Dipole_moment: 6.828
 S          -1.34046750537954   -0.49823778374325    1.96081094428750
O          -2.71826269427085   -0.26616441955005    2.21156602738552
O          -0.46410142617815   -0.78714686849519    3.03888171421623
O          -1.20806772873936   -1.67733248021626    0.91456404650401
O          -0.75649037242075    0.70981232694177    1.15511872283223
H          -1.29239355590357    0.68523436067352    0.31909469065456
H          -1.74998604215182   -1.43805076386577    0.15223452124373
O           0.03973741997699    0.44196853212569   -2.40971330467060
H           0.15931436999082   -0.11934652201699   -3.17657953750532
O           1.58251400497771   -1.67775240648420    1.48202874760047
H           1.01401855199409   -1.28635866532522    2.16380006808708
H           1.19588614637658   -2.53518186034399    1.29374085093728
O           0.87494705958789    2.64633731308739   -0.25311915660666
H           0.47242800379327    2.36047940002448   -1.07765469234042
H           0.42971056564873    2.16367713075190    0.45156554142366
O          -2.06887980899658    0.10058508462610   -0.97544904916977
H          -2.77889206095079    0.65438518014147   -1.30648939567139
H          -1.29004698939914    0.20674323579912   -1.60606935456756
N           2.05890682225658    0.01564875332242   -0.82633360649900
H           2.21731426599608    0.94643212633992   -0.44931035503372
H           1.85946836637154   -0.59492728549397   -0.03206425537091
H           0.83608658036352    0.24874150169899   -1.78985020075388
H           2.92725603720037   -0.29954586996509   -1.24077295693235
