    23
        -45.37525518  Gyration_radius:  2.3991014187 Dipole_moment: 2.147
 S          -1.27775310576245    0.14020726754783   -1.43089684017044
O          -0.81011349923450    1.31514020692903   -0.68222042382188
O          -0.17544448216643   -0.58597627660446   -2.02114942283768
O          -2.16276474618965   -0.66613143510782   -0.61961960657827
O          -2.13803328418534    0.70313493529764   -2.63718521146374
H          -2.93026689041482    1.02662324606545   -2.21819027531576
H          -2.31330579652224   -0.79308559970683    1.07241335264233
O          -2.21428041077905   -0.90095358634143    2.04343267236517
H          -2.46973274645487   -1.80652573536987    2.22650116917346
O           0.89788658801012   -2.12728380734076   -0.19978823748969
H           0.43703297021269   -1.70323787475923   -0.96071878571359
H           1.81052572971498   -2.24868012443120   -0.46979656857816
O           2.57662192817020    1.21989034670725    1.37576438787596
H           2.88407693635974    2.09611127774504    1.61040582379224
H           2.43359173555716    1.23648485859984    0.40346053141132
O           1.80151426702994    1.28934823911874   -1.21326620241939
H           0.86379496233565    1.52155205444586   -1.06973495662419
H           1.75367905252346    0.54238707472931   -1.81749185905076
N           0.21461481305524   -0.04720566716533    1.35534728394031
H           1.03996397787843    0.43415458435450    1.75515362495484
H           0.53660918927319   -0.91955617729113    0.86712915442785
H          -0.54831016768131   -0.30094795660507    2.00887334792152
H          -0.20990700068929    0.57455013917462    0.62157706155446
