    23
        -45.37436776  Gyration_radius:  2.41607945144 Dipole_moment: 3.697
 S           0.07002104980496   -2.00184266486252   -0.55002510141823
O           1.25857371289840   -1.25688132177085   -0.95353750654172
O           0.00841669874006   -2.24325841324353    0.87407644471621
O          -1.14114041761067   -1.38312553815871   -1.07761861274407
O           0.18299029087539   -3.42956482443972   -1.23337153144920
H           0.22737477383626   -3.24320657650424   -2.16642862751682
H          -1.97889242083538   -0.87014070042103    0.30532880604517
O          -2.13753110800729   -0.57549883826463    1.22902698764053
H          -1.74991007739862   -1.28790770015232    1.75018917437436
O           1.76842479947637   -0.45765232324630    1.64793025757768
H           2.28233456986435   -0.49204843952418    0.83307139657074
H           1.17154333998974   -1.23376268956761    1.56244901158772
O           0.22461236663538    3.56989770431087   -0.42507190872891
H           0.26531461349971    2.88825825734031   -1.10891652122245
H           0.44108370109472    4.39941139621320   -0.85202889245196
O           0.08815102475805    0.95576146964207   -1.63540584172853
H          -0.73930650380472    0.49650261054755   -1.83141025228861
H           0.71274229492539    0.20309735416654   -1.49922951324329
N          -0.19603926499158    1.21476762800514    1.05078653949118
H          -0.24204300152071    2.17794221953970    1.37387627644357
H          -1.06263910216931    0.64883739835086    1.26996693866923
H          -0.09787951650397    1.22710240939727    0.00562036251763
H           0.64379815637964    0.69331160265898    1.43072210372127
