    23
        -45.34494553  Gyration_radius:  2.55752278695 Dipole_moment: 6.403
 S          -2.18629666901737    0.97209320380800   -0.74661731124450
O          -2.72533618952056    0.94211891205713   -2.05894253101097
O          -2.79183333962987    1.79675573719295    0.24091399849323
O          -2.17796154723446   -0.50665088017743   -0.16964736033971
O          -0.66700729212795    1.30647804190872   -0.79979783268501
H          -0.25687768819889    0.50429290718841   -1.24104036543518
H          -1.73705650204628   -1.05648085574517   -0.82695768118631
O           1.66297076719646   -1.39863734552214    0.45703315010765
H           1.46686503718561   -2.10218496719637    1.07674389942346
O           2.79060079843542   -0.93481569100320   -2.12154019833270
H           2.70190571937203   -1.14835712550274   -1.18200059133161
H           3.63368868569706   -0.49372642552653   -2.22875060657775
O          -1.75094230341423    0.61007212127870    2.45068445581036
H          -2.18993972112582   -0.23557351284391    2.33965112658955
H          -2.15342433972265    1.19119147905738    1.78274973301201
O           0.07140358057855   -0.99534352332081   -1.63497912504686
H           0.60441390678415   -1.25008001121791   -0.83942351613371
H           0.72571699173938   -0.98755422555348   -2.34662719256206
N           0.99721730096081    0.83865538400239    1.63390295132302
H           0.83486954246907    1.49975953503619    0.88197223941299
H           1.45996340721649   -0.52817489595888    0.94145716542442
H           1.60100570646615    1.28215976158241    2.31507739522139
H           0.08605415845501    0.69400237630726    2.07613816692534
