    23
        -45.36143594  Gyration_radius:  2.34950916785 Dipole_moment: 6.153
 S           2.12137417104139   -0.17047793403371   -0.86567476703004
O           1.76183956131745    0.70913070844211   -1.94783006151872
O           3.43046975439987   -0.72692707400544   -0.83686362752249
O           1.95796326420999    0.68515347085163    0.48500570970790
O           1.05957499302811   -1.22495672039873   -0.69568567999090
H           0.84345382644437   -1.38382877824982    0.70346222263866
H           1.19831369620263    1.26672051680076    0.27848483226985
O          -0.87261629906124   -0.04528431164984   -1.91190517844374
H          -0.49256384547118    0.22137010451527   -2.75361074114551
O          -2.83876573775423   -0.62551394591441   -0.08386820781904
H          -2.21742108405591   -0.54425252359225   -0.82703542829694
H          -3.66314726658731   -0.23066630938664   -0.37202659537296
O          -1.27776663823278    0.46510955789175    1.81329965932597
H          -0.94013178374147    1.21311854601336    1.30183172516598
H          -1.94783455656330    0.04126709461113    1.23382815548477
O          -0.21681821170432    2.00130858839402   -0.31795822763079
H           0.24097735672571    2.63985958417035   -0.86961852330220
H          -0.51848766680905    1.29418965579878   -0.94111323641583
N           0.67311319016832   -1.30020897712648    1.79647466220671
H           1.52279975980643   -0.89363697462864    2.18122292907942
H          -0.15032988230319   -0.58930177662541   -1.49426011745368
H           0.46103294778432   -2.19842852977326    2.21786988030300
H          -0.13502956885402   -0.60374397221110    1.90597062567912
