    23
        -45.37140981  Gyration_radius:  2.31788896706 Dipole_moment: 2.491
 S           1.45944198206658    1.07001146311476   -0.15179583242262
O           1.39605504852324   -0.12527356976434    0.67256440514512
O           1.86688085767388    2.25493762233852    0.54433101360119
O           2.61257685624788    0.77464295239560   -1.23778050750943
O           0.23741774498481    1.23010943537632   -0.94161466381977
H          -0.92782217437231    0.28468757729989   -1.59369014993641
H           3.19855159454788    1.52346209167775   -1.17121490226041
O          -1.63458942969768   -0.37031811925124   -1.80566469543488
H          -2.46271251388230    0.10975355931573   -1.75232298723691
O           1.10410485617035   -1.61737839175639   -1.84675027149863
H           1.70022395165821   -0.90480750284624   -1.59984823237268
H           0.45515623380267   -1.23576373921677   -2.44332300498613
O          -1.73576395281774   -0.44826048057450    2.45980831797377
H          -1.26260556799157   -0.55182079704148    3.28725645790916
H          -1.48141372301479    0.44064021564390    2.12086360774728
O          -0.77338800488660    1.85042946169145    1.44931979608778
H          -0.59062606295674    1.71527001759611    0.50405485345429
H           0.04563282421821    2.23464584845407    1.77884801921529
N          -0.65996278218824   -1.67938190295402    0.34850996988867
H          -0.46276990284722   -2.67245143071498    0.29326526186642
H          -1.13587833617338   -1.34901133162235   -0.52172723531357
H          -1.20696697694113   -1.39900746262289    1.19746143481266
H           0.25845747793833   -1.13511553664070    0.40944933542246
