    23
        -45.35403936  Gyration_radius:  2.31251274168 Dipole_moment: 7.118
 S           0.66768280109414    0.27600599991393    1.84403788325968
O           0.75130074147626   -1.03691080550672    2.40510954643501
O           0.90753207651973    1.41339940961204    2.66449721207102
O           1.62653233344861    0.35805868699569    0.62137592854186
O          -0.74591934734231    0.44364306829771    1.20817628375239
H          -1.20532952724810   -0.43440659397177    1.07741534434640
H           1.65754006765025   -0.57238666188902    0.23246176758380
O          -0.77337508293581   -1.42121445280505   -1.73574079029146
H          -0.72542438561622   -1.73048157063023   -2.64115023364863
O           0.45016253443684    2.99084894809858    0.47168905908059
H           0.47228335485427    2.53752796371251    1.32735222272499
H           1.33037535573240    3.35524622455875    0.35734621606117
O           1.31231462962191   -2.07181117811040   -0.07795728098000
H           0.52520539741745   -2.01118948754068   -0.65334353953855
H           1.00656724918291   -2.22637010010260    0.82820938769324
O          -2.02437214148644   -1.72855943663693    0.60362767766673
H          -2.95551344816027   -1.49901064492205    0.58041548615901
H          -1.70817986756662   -1.74781485933428   -0.32102358039144
N          -0.10482372845167    1.11630970105008   -1.77859236364675
H          -0.17862379564614    1.50992176771815   -0.84003717503218
H          -0.54740694676023   -0.43041456408402   -1.74965076861351
H          -0.61485184436609    1.73538456852622   -2.39784140344758
H           0.87632357412150    1.17422402708868   -2.02637689981584
