    23
        -45.35090622  Gyration_radius:  2.32419248729 Dipole_moment: 8.100
 S           0.46617139890377   -1.03795955856834    1.41251518982925
O           0.36938574843276    0.35325608780831    1.76028462520739
O           0.49600646405183   -1.97307424995750    2.48053343385240
O          -0.66509485981450   -1.39057987865166    0.40050109876436
O           1.73387379318244   -1.22590354285407    0.52836110936507
H           1.49329521817364   -1.32782858216838   -0.44134099500317
H          -1.26063522928635   -0.59283547993718    0.25058730158912
O          -0.13150377820901    1.03801830192021   -2.21381537191799
H          -0.03446262613770    1.59072396466074   -2.99066505937898
O          -1.98307461374797   -0.69018154272734    2.86487613189589
H          -1.44797273584413    0.09712056793104    2.72976044392987
H          -1.36118039193842   -1.38827600357011    3.09207686452772
O          -2.04747651733916    0.64174222111254   -0.34383278633900
H          -2.90456588220085    0.36801356377364   -0.67645997149754
H          -1.48111606601856    0.87538398962341   -1.10606353524269
O           0.88322199122096   -1.45727784819107   -1.91148140918211
H           0.13218570910766   -2.02072367623554   -1.70438163804121
H           0.51407337838449   -0.57511839446359   -2.12773002771366
N           1.52294431690005    1.79641510421857   -0.35464393408159
H           0.52123550365013    1.39572316506004   -1.51460009272314
H           1.66379334630653    2.77999999618603   -0.15929058219181
H           1.08648569014377    1.37953161818422    0.47265663337947
H           2.43441013201422    1.36383017682534   -0.44784742907506
