    23
        -45.36925683  Gyration_radius:  2.57713503992 Dipole_moment: 3.122
 S          -1.96650938639419    1.65622415205494   -0.09474191249845
O          -1.54949466433091    1.42224750309722   -1.47975359118907
O          -2.35254239674006    0.43963154719775    0.58255182968157
O          -0.96917598218867    2.43110965255429    0.62834786143446
O          -3.26700407771451    2.56091215558007   -0.17896004655267
H          -2.94585586161132    3.34242914043772   -0.61870762326084
H           0.38483866618056    1.68610557516962    0.98993307650522
O           1.26084486723500    1.21021803875252    1.02585949578026
H           1.92737721542589    1.89853595245144    1.05688763460318
O           1.62841134162940   -1.58586242841056    1.37455533074811
H           0.69971950299741   -1.85431787986354    1.34767958043607
H           1.61373438277401   -0.63583545051086    1.55235396881651
O          -1.08037609109487   -1.81390402712810    0.59617402154513
H          -1.73270200558502   -2.50237557961669    0.45990822340532
H          -1.59590809697998   -0.97371073915934    0.71098709160042
O           2.53200898567500   -1.83218536605156   -1.19215197674946
H           2.30628302038440   -1.82355024021018   -0.23756447393373
H           3.28232459351703   -2.41908361453429   -1.28311478901986
N           0.37353320067459   -0.24564014389605   -1.08207915085903
H          -0.37216866603908    0.41471879772268   -1.45694212998739
H          -0.11483012326128   -1.02326001634720   -0.59278258976208
H           1.03615207391983   -0.63524047175506   -1.75556406419998
H           0.90133952152991    0.28283343247730   -0.35287577654627
