    23
        -45.37673817  Gyration_radius:  2.3503677009 Dipole_moment: 7.548
 S           0.75599805873839   -0.51619155154669   -0.88195487048335
O          -0.61756099215301   -0.91080613535089   -0.55695005756721
O           0.76186328751298    0.53119644084319   -1.89451519645311
O           1.45449610790699   -0.09572908811094    0.33495751725904
O           1.49525116532406   -1.73746065826460   -1.46876713957160
H           1.80185310768668   -2.25877451332365   -0.67182547839444
H           0.80786751723339    1.21839597174453    0.99852176431081
O           0.41886451159743    2.08009614713403    1.30560444163390
H           1.16633062010328    2.60874425513801    1.59108815484380
O          -2.79961717653140    0.51498802556783   -0.81591386076994
H          -2.05322735681529   -0.13143192480692   -0.81825781748390
H          -3.32379569355210    0.30380344177602   -0.04116057736907
O          -0.39467636041870   -2.31453361870391    1.67244910340733
H          -0.57002379195442   -1.85346070277067    0.82393433055820
H          -0.37228754766422   -1.62817182871115    2.34224826883135
O           2.14761937902267   -2.64485371561774    0.85099295647062
H           1.26496250319627   -2.82771201257794    1.23616809494655
H           2.29450927502093   -1.70332643350956    1.02499522748980
N          -0.86358765668895    2.31403732106428   -1.01322955433850
H          -1.77004092197557    1.78601454345592   -0.93872991164605
H          -0.45452041859405    2.43814784459073   -0.05487044873385
H          -0.18351894672731    1.63863581106033   -1.50891318165467
H          -0.96675868026546    3.18839239090129   -1.51587176527524
