    23
        -45.36935239  Gyration_radius:  2.59181817556 Dipole_moment: 5.508
 S          -0.57393021754010    0.68133843053941   -2.18508457294893
O          -1.19983267762354    1.82441827277997   -1.55610678090287
O           0.86172228581698    0.61113275242649   -1.98068209639234
O          -1.23086360832072   -0.57895205453296   -1.83458498547309
O          -0.78072625581415    0.87732769907067   -3.75207383442887
H          -1.62181568758142    1.32154245771454   -3.79266779637083
H          -0.03519248148704   -1.58191456789838   -1.22482809937553
O           0.81614607915194   -1.84682852428152   -0.80629374040188
H           1.45362549710814   -1.31787997422157   -1.30114020035446
O           1.78834160346336    1.73626384662907    0.20122321228331
H           1.40767563561548    1.43595479847643   -0.65847908760896
H           2.68484510594066    2.01403255405562    0.00939227215142
O           0.30878946186076   -1.48271709732240    3.87289535262551
H           0.32005290937594   -2.44217610596885    3.89188154582420
H          -0.45427697816211   -1.19211919440084    4.37748847793566
O          -1.99327227169553    0.40435713834936    0.50527828324629
H          -2.03231398371687   -0.24905184950434   -0.21543721552043
H          -1.82092671120806    1.22135077919046   -0.00321542096095
N           0.43204809452069   -0.29223258651142    1.31972532399375
H          -0.56507551173382    0.02128381641424    1.13675380024482
H           0.53228125995472   -0.66132049528495    2.27187229060088
H           0.64944533436134   -1.02392553489483    0.58655038964739
H           1.05325310771854    0.52011544917560    1.13753286218913
