    23
        -45.37372465  Gyration_radius:  2.56710231263 Dipole_moment: 5.638
 S           1.99229861237036   -0.28382437510033    1.13250959743945
O           1.13839858173321    0.47359544065983    2.04007335594800
O           1.46532966848841   -1.59444976030564    0.81594258740939
O           2.33549072292812    0.49640682014783   -0.05007738798363
O           3.35361894655174   -0.53908941558207    1.91185013846108
H           3.67014444913296    0.33683321963038    2.11125638431140
H           1.58103265269473   -0.32075280173881   -1.32208846321649
O           0.95545512807002   -0.93065443957551   -1.77253664172393
H           1.05469428653100   -1.74048706026435   -1.25718105942229
O           0.25120881840176    2.23365312124644    0.30524805213504
H           1.04763684438555    2.17345622970068   -0.23618115569501
H           0.50243759242005    1.72108513768332    1.10585455202549
O          -3.62865107990138    0.23851824248697   -2.08575398135696
H          -4.42673938988784   -0.15515958042416   -1.72732839654646
H          -3.66865024811640    0.16211078090721   -3.04109805123748
O          -0.99788409818429   -1.17840013149958    1.62625684719700
H          -0.14416603393043   -1.58408580849083    1.36090193706361
H          -0.71232457637532   -0.49353132741998    2.24420876573698
N          -1.18159200852349    0.20120175389972   -0.64785213665798
H          -2.06705439500129    0.29850993310121   -1.15377121879823
H          -0.78248309060669    1.13078879441280   -0.35258275161265
H          -1.29377724381017   -0.37437567806570    0.22992377643837
H          -0.44442415936251   -0.27134911541001   -1.23757474989520
