    23
        -45.36857383  Gyration_radius:  2.40810241124 Dipole_moment: 3.630
 S          -1.39820161102904    0.31149025304187    1.55424279546912
O           0.07309364930052    0.23742571150838    1.49043850686307
O          -1.90931863147222    1.38293001029279    0.74984977869969
O          -1.98372026970147   -0.99303483078013    1.28918874360398
O          -1.74216837295234    0.62772709858321    3.07357608705682
H          -1.67531030788823   -0.23744436545925    3.46424854524270
H          -2.18075446429956   -1.22186022057537   -0.27540220331436
O          -2.16560848934234   -1.46667283423825   -1.24086470540391
H          -2.33843295062782   -2.41008959596112   -1.26186229795088
O           3.06885839292616    1.01528935368231   -0.20000881458833
H           3.34733251146264    1.35060076227158    0.65407678345111
H           2.26139218744237    1.49968211996761   -0.42675481657278
O           0.39411823125918    1.81420254084362   -0.53058929749362
H           0.32416115681570    1.27723131099869    0.30406327504216
H          -0.43787731698102    2.30170847901721   -0.51523634322678
O           1.71488734833104   -1.33933618654153    0.11681506444252
H           2.42781103091915   -0.67710953340463    0.02947551713626
H           1.10509127279843   -0.94475724228256    0.77698924182401
N           0.22335500963249   -0.51012114697916   -1.84858599130902
H           0.54025909840707   -0.60669585861531   -2.80650183762031
H          -0.75108612451576   -0.90154797268502   -1.71278762490149
H           0.87627315787349   -1.00383941860920   -1.14790549877735
H           0.22584549163959    0.49422159593482   -1.53646489767229
