    23
        -45.37575516  Gyration_radius:  2.36120543701 Dipole_moment: 5.640
 S          -0.58242379281055   -0.72717998138126    1.30695625254352
O           0.67742264477673   -1.23435309073283    0.72283858349607
O          -0.39251400763611   -0.17762360920148    2.62167365253607
O          -0.97025528255592    0.49180712304494    0.33412723510892
O          -1.66877419835704   -1.66066930787783    1.15778376662220
H          -2.33946733275458   -1.57056171059927   -0.31140417551437
H          -0.14424064727643    1.01677546898063    0.31069497268612
O          -2.54048570457565   -1.33474644781726   -1.25506887873730
H          -2.88126990110223   -0.43851984682135   -1.20844412718650
O           1.57371529629259    1.22393222990657    0.31584187467523
H           1.59091906084322    0.26668816527543    0.51220952403619
H           1.69166680185366    1.65156287636109    1.18771433409813
O           1.00977256649292    1.07581910982432   -2.34198199859088
H           1.40826597583161    1.23739887867295   -1.46738004755348
H           0.38932085821095    1.79203762029779   -2.48885893855653
O           1.32614624251974    1.80806476351039    2.89407148113675
H           0.72389227516283    1.02952825610860    2.91071394251377
H           0.93552176117889    2.45440216626799    3.48355668296977
N           0.04582935886652   -1.39406504919767   -1.76715865086446
H           0.37314925438940   -1.45175515174054   -0.74381076369641
H          -1.01668010227345   -1.38697099031941   -1.72070186633634
H           0.40210545438755   -0.48885474247383   -2.14796509924959
H           0.38838342852594   -2.18271673008720   -2.30540774613293
