    23
        -45.37689208  Gyration_radius:  2.30546988567 Dipole_moment: 5.579
 S          -1.01105564802466    1.56450696545913   -0.08018503877189
O          -1.08789853196895    0.96602157397519    1.25878796596148
O          -2.28160453215208    1.77498123595336   -0.69964771714457
O          -0.36368741640689    3.01366069062803    0.16095171953234
O          -0.01966824432347    0.87704631459534   -0.89342461066903
H           1.52122891424858    0.97558568395415   -0.34494604693585
H          -1.12085511313874    3.58577486240791    0.24170694995968
O           2.37495405769126    0.90894771326708    0.14623831223919
H           2.57155432678211    1.80021700259764    0.43850884216176
O           0.94734280687974   -1.26505462481360   -2.20360982042739
H           0.48901909571973   -0.46160512813449   -1.89927939996276
H           1.88293915405105   -1.05450788867171   -2.18059293638075
O          -0.10746139853282   -2.54275287880378   -0.09836607464102
H          -1.02082219121818   -2.19837120046583   -0.14652698864460
H           0.30030194484699   -2.27537256921511   -0.95098581461729
O          -2.34187913615599   -0.98724421533643   -0.11978634922925
H          -2.07402979876640   -0.31907436649079    0.52832473064584
H          -2.70171486515362   -0.47787238837211   -0.85082524534564
N           0.82992857519898   -0.78825595191625    1.56681238632143
H           1.02324766190042   -1.12186752913051    2.50437488196336
H           0.03907279626951   -0.08196365320044    1.56212033392205
H           1.64602097545790   -0.29738006104921    1.14886087622903
H           0.50506657682811   -1.59541958724081    0.91148903382908
