    23
        -45.34917518  Gyration_radius:  2.36681129786 Dipole_moment: 7.527
 S           0.33246001591485    0.44649140663856    2.24093761749034
O          -0.18367864001891   -0.85347257891319    1.92803277889715
O           0.45162855292258    0.81249623135775    3.60215458921768
O           1.69433384251124    0.62679450491805    1.48812887642738
O          -0.54568395284448    1.51963870777068    1.51223820061736
H          -0.23532574754820    1.55902995996805    0.56700095037248
H           1.93467764845720   -0.23098502023473    1.03531509109196
O           0.58546824565837   -0.82849890790717   -1.85726008529492
H           0.46229383092513   -1.07923070571747   -2.77328909464907
O           2.37324041310820   -1.41622138866358    0.05384368249979
H           1.73902633922375   -1.32294368449869   -0.68879136009182
H           3.25442720879861   -1.29698582769710   -0.30634819830593
O           0.37136531989573    1.65342965073850   -0.92903591147058
H           0.45711255979688    0.75210830178094   -1.32581007468306
H           1.26303218096315    1.95294208992946   -0.73777932720346
O          -2.59586882572160    1.29321388431757   -0.54935782909318
H          -2.44210012593964    1.49711536596421    0.37858311700650
H          -1.88074749424899    1.71915134704424   -1.03109691125835
N          -1.49322447902876   -1.40558387113128   -0.50382349929423
H          -1.11144723431659   -1.37070189111650    0.44373569052885
H          -0.28108723612883   -1.13272910561510   -1.34440245312105
H          -2.00725414585595   -2.26996527649241   -0.60742951440777
H          -2.14264826650527   -0.62509319250385   -0.59554632523461
