    23
        -45.37878832  Gyration_radius:  2.25944970901 Dipole_moment: 2.890
 S           0.72455319682976   -1.22899232188270   -0.18289006411564
O          -0.68138304716610   -0.90949274673905   -0.32476035531115
O           1.00323204231869   -2.21703940735590    0.83235527644097
O           1.17394609779179   -1.88225072248112   -1.56788144545065
O           1.53685560450801   -0.02285320987933   -0.02437621082994
H          -1.71611103748290    0.77515803084092   -0.13190826551426
H           1.94897701101265   -2.38264965177634   -1.33048701417806
O          -1.58952069164980    1.70328707868718    0.11426615723738
H          -0.94138797530364    2.03443983235837   -0.55997346878679
O          -0.69294431796708   -1.32624428329526    2.62468660760805
H          -1.53116878325492   -1.48978602112967    2.18518909297234
H          -0.02255460574481   -1.79192206200580    2.07455041813915
O           0.43841811854372    1.97863588584132   -1.55013040441452
H           1.00253488071090    1.35288805452083   -1.06481336171553
H           0.06093878250233    1.45357717619637   -2.27860774865583
O          -0.63013794535791   -0.13310835011684   -2.91058473080019
H          -0.02987699154705   -0.74854419330381   -3.33535865896158
H          -0.77845909328765   -0.49178787320805   -2.01785318884174
N           0.15675958487450    1.09000040529707    1.92437671824522
H           0.52047348592041    1.76892162760014    2.58407099776215
H          -0.21013634848975    0.22119050283293    2.39651403731943
H          -0.63145940943515    1.48737705547104    1.29622887605141
H           0.88845143166933    0.75919518354036    1.24738672579991
