    23
        -45.35477512  Gyration_radius:  2.40787444947 Dipole_moment: 6.262
 S          -0.63735476149025    0.03696116437821   -2.17038332840036
O           0.73065021110342    0.12266699643580   -1.74325073965662
O          -0.90806047838801   -0.12282271521125   -3.54974324994770
O          -1.30077563110417   -1.14263835901332   -1.36235238998367
O          -1.42046412422125    1.26301711489858   -1.64240665136196
H          -1.22034942971664    1.37178888334044   -0.66136152760087
H          -0.64881924095784   -1.47694874702776   -0.67130055249386
O           1.32823913029315    0.21772965237805    1.72872522269102
H           1.76809677406211    0.30561561193341    2.57522854248741
O          -1.03812857296542    1.30338869788996    0.89648571127062
H          -1.66160984463739    0.59764027617528    1.14459993006722
H          -0.15633613478915    1.00713244223620    1.19008399877477
O           0.02569398833718   -1.92400556209052    0.69808059758259
H          -0.73631547350443   -1.96911663808948    1.28500707883888
H           0.59058866881617   -1.19947653735477    1.03588030190934
O          -2.74212889539363   -0.85882431573933    0.99671012059742
H          -2.51923221929322   -1.04369540875847    0.06939262617777
H          -3.68521273693707   -0.69039566826471    1.02922046666289
N           2.96732454356396    0.88801761079580   -0.20949236832134
H           2.26741907246523    0.64080227475113   -0.91080261541477
H           1.99377150178931    0.48863420636438    1.02104739040370
H           3.78903088518277    0.32583307729315   -0.39250046160934
H           3.21397277778265    1.85869594267266   -0.35686807268572
