    23
        -45.37651444  Gyration_radius:  2.2954922248 Dipole_moment: 5.200
 S          -1.06947795722996    0.53538923575841    1.55484773083363
O           0.36997744887008    0.53900160148501    1.75254488235871
O          -1.69109300522513   -0.72778612788058    1.88120527546388
O          -1.68642406680558    1.58147235635527    2.57693697629711
O          -1.40645286044537    1.02466214589668    0.22103200500639
H          -0.21491902303684    1.98758580341912   -0.35654285372332
H          -2.13983627322569    0.98385070117592    3.16116696857565
O           0.45448022439781    2.45578668963463   -0.91560049162605
H          -0.04203228673791    3.09886762619626   -1.42501697851924
O          -1.16514918844839   -0.83259460148051   -1.68128634746148
H          -1.03748749583720   -1.62085907811632   -1.09812938417897
H          -1.47773491393075   -0.13771426655546   -1.06554874007647
O           1.97042673809170   -1.04361253444808    0.54174678948704
H           2.79655964085674   -1.02385746517621    1.02707798162207
H           1.35175915947921   -0.43747819921329    1.04441954502480
O          -0.50282400569390   -2.48391326232709    0.26429122358333
H           0.42761140495285   -2.29222628077676    0.43324815626366
H          -1.00464736697303   -1.97672173566387    0.93462260119352
N           1.24558247378247    0.07358146362974   -1.79738323473659
H           1.08982694223589    1.08468083583612   -1.55478951242538
H           1.79356522747397   -0.04105095036503   -2.64174610356587
H           1.69415306063590   -0.38806430256032   -0.97495100130156
H           0.24413612288923   -0.35899964476030   -1.88214549809628
