    23
        -45.38134564  Gyration_radius:  2.27247654972 Dipole_moment: 3.505
 S          -0.79878735855400    1.07594978133595   -1.13639951341550
O           0.64639553503068    1.12957246273884   -1.35718397445070
O          -1.31813607531698   -0.26985375608152   -1.12647457909276
O          -1.16992791692652    1.84351355531963    0.04367791230899
O          -1.46007680319631    1.80609843818725   -2.37498839043203
H          -1.13908358225685    2.69798570579587   -2.28968374827900
H          -1.95667555233200    0.75510280802472    1.02505960290317
O          -2.26573100220284   -0.07831226769367    1.44949515720247
H          -2.57212893306787   -0.60338989926023    0.70212118578195
O           2.29569277674385   -0.95243363859117   -1.62355047369103
H           3.12400562892876   -0.62507774494008   -1.26940874705173
H           1.69737553497189   -0.17908154567233   -1.66870006047571
O           1.29193260356282    1.30373027241946    1.17682605246793
H           0.61151655697982    1.93668595649713    1.42979074825624
H           1.19840844359507    1.25901550586136    0.19802289421230
O           0.28743811219141   -2.29073635317747   -0.43903432026012
H           1.11021658777790   -2.03715240467358   -0.90297100908247
H          -0.39373850552504   -1.70902206751031   -0.83406629288971
N           0.17634442349218   -1.02743442717542    1.83142284200796
H          -0.84049451590823   -0.72258419696221    1.83615136326621
H           0.43396509918000   -1.50399178449576    2.68796046095272
H           0.29600466984611   -1.65607161726371    0.96244419819577
H           0.74548425294291   -0.15251278271277    1.67948868152669
