    23
        -45.36190203  Gyration_radius:  2.37859377566 Dipole_moment: 0.763
 S          -0.62263361995866    0.06768068086853   -0.92534020438778
O          -1.59703491906350    0.39554267169406    0.09048646314446
O          -0.04822183883268    1.16607132863095   -1.62605486179437
O           0.47959569339583   -0.77630187665487   -0.25464218176818
O          -1.25771280469648   -0.90635825379077   -1.93365564583681
H          -1.37908758654100   -1.79012569773308   -1.45091690678867
H           1.41635239989042   -0.41039670479226   -0.59182249662823
O           2.56201832270029    0.25302355429470   -1.12457951997212
H           2.25168024010441    0.50032076841121   -2.00115469132888
O          -2.51120870675304   -1.65926204474915    1.49368359828954
H          -2.21097818955862   -0.82717676782220    1.07073757043545
H          -3.46358218702874   -1.58834923952214    1.58056305064482
O          -1.35665899663016   -2.99989066396702   -0.47699345652499
H          -1.85284602520140   -2.66622537126355    0.30865612094293
H          -0.43562972201362   -3.04377788299966   -0.20433053235490
O           0.19097618100197    1.19246331125762    1.99004001434702
H          -0.54769956335011    1.04769315466522    1.37847120540369
H           0.45424513946406    0.32116748794573    2.29343806944432
N           2.01380064476321    2.45430719435869    0.13562628601885
H           1.31673730737759    2.77343942934084   -0.52856336612120
H           1.50159798822386    2.13845695561363    0.95958101683544
H           2.50135137191392    1.11860600069188   -0.58400132372238
H           2.59493886854608    3.23909196652402    0.40077180263110
