    23
        -45.38497748  Gyration_radius:  2.25781177399 Dipole_moment: 2.534
 S           0.70857756614889   -0.14994808015333    1.72223134388055
O          -0.60289810072193   -0.07895177941374    2.33795825883268
O           1.04623469851721    1.09302985143892    1.03117511317107
O           1.74981562602402   -0.29029905847678    2.90741549257124
O           0.89820833314811   -1.31471125458174    0.88312390841773
H           2.26257908476874   -0.87997797893982   -0.40172975128363
H           1.46034305319374    0.39015501938052    3.50583752179664
O           2.45995674527455   -0.05305409873983   -0.86828937899409
H           2.16189292449727    0.61343965436348   -0.21704228006192
O          -1.00644938241383   -1.79396691202463   -0.92067090632258
H          -1.73017390228721   -1.29763739360588   -0.50090244456661
H          -0.31104628215284   -1.83248223200701   -0.23168979579312
O          -2.46131831336918    0.01660647244123    0.54282063870046
H          -3.31490260350502    0.00213213420841    0.97866099499032
H          -1.78351926159332   -0.03206051627708    1.26838454066484
O          -0.85007266691485    1.89486618059076   -0.66035952630958
H          -1.61103252709702    1.40655460502641   -0.30320258115340
H          -0.14811154195532    1.78664473141821    0.01592714806804
N           0.21600325880034    0.10582844183740   -2.26099787486920
H          -0.30620937590932   -0.74900434414297   -1.89650124434886
H           0.19689427946648    0.17574426953649   -3.27136199280756
H          -0.23960531112014    0.94173218241387   -1.78209888193872
H           1.20483369918886    0.04536009566274   -1.87868830265117
