    23
        -45.35840022  Gyration_radius:  2.5590713068 Dipole_moment: 7.872
 S          -1.77582815056958    0.27955949911283   -2.09141822832571
O          -0.92697608900931   -0.60506388523656   -2.86891391313265
O          -2.93386636195983    0.78807724389718   -2.74825652937720
O          -2.32719394363182   -0.65986037170153   -0.86523293905393
O          -0.98174158052818    1.26626182008408   -1.34113126646620
H          -1.34217071944651    1.37611898981515    0.29161679849266
H          -3.06284558322682   -1.12373844566108   -1.25351743334202
O           0.96656503547911    0.68216882604186    2.17423985657359
H           1.01974329931244    1.10782045817074    3.03089244547606
O           0.62314466332632   -1.92333587690563    1.45348083583952
H           1.38311899493453   -2.46569188818846    1.66962931295443
H           0.75828731002325   -1.06037434692562    1.89039397547245
O          -1.43368430123927    1.13485821168191    1.24057387008670
H          -1.95545086012657    0.32721572879213    1.22361275149000
H           0.06429236479037    0.91405270626326    1.81190728033221
O           2.90227314943914    0.61331551995528    0.17986791049122
H           3.14366382077451    1.50541817495422   -0.07320341408615
H           2.30412491883823    0.69454842857569    0.94496387629418
N           0.74734488178711   -0.59864454807192   -0.92936685280663
H           0.40591977777734   -0.96035718938430   -1.84604148444593
H           1.73915028060905   -0.31813311348558   -0.87905665945891
H           0.13877975788287    0.26936669635270   -0.87526349413769
H           0.54334934473228   -1.24358264807049   -0.13977668886174
