    23
        -45.36772540  Gyration_radius:  2.36896631019 Dipole_moment: 7.422
 S           0.09268165887606   -1.08428803709924   -1.28227096362964
O           1.13408773768268   -1.50936863281546   -0.34334709171736
O          -0.09091323843148   -1.96661383652480   -2.39714791813762
O          -1.26086453166796   -1.14489585959815   -0.40456114733504
O           0.22339426164826    0.32698341263441   -1.61510089772805
H           1.81175669971798    1.09036861049281   -0.76040887499319
H          -1.30148729841919   -2.11053952298985   -0.23992935435553
O           2.28132788579224    0.73787713879705    0.01170468267341
H           2.02517280149646   -0.22469038238780   -0.04902912508472
O          -1.23152841369893    2.40288863062026   -0.93633138027081
H          -1.91023854365635    2.52224354679343   -1.60231317100267
H          -0.66992305559455    1.66007941903259   -1.26095758369079
O          -0.54251348813665   -3.66459308914467   -0.40322164698300
H           0.30491691624522   -3.36731043699516   -0.04691075640163
H          -0.46532842470430   -3.48300656453984   -1.35526455540915
O          -1.55179849178966    0.97327048290632    1.25549888289977
H          -1.54271103122158    0.12208878227139    0.77826338906528
H          -1.60566092264555    1.64015561028037    0.52985313143967
N           0.86701945469328    1.42621808898220    2.05053971863813
H          -0.16881705403780    1.21884957814438    1.76081801394728
H           0.96918870740048    2.41263384196110    2.26800743933018
H           1.12548097161125    0.86028509519508    2.85258742449711
H           1.50675741881533    1.16136413401564    1.18952176425545
