    23
        -45.35225007  Gyration_radius:  2.40924793371 Dipole_moment: 3.887
 S          -0.95270948920163    0.17774013632533    1.87010041296717
O          -0.04008289010899   -0.89291905976715    2.15136704296518
O          -1.76111621492549    0.68272342562153    2.91544424356900
O          -0.16020171083667    1.37190688754790    1.25677438196938
O          -1.85105983368695   -0.26426622960304    0.66804494414348
H          -1.44992213537351   -1.08819730132603    0.25530467316660
H           0.37278864638651    1.06105348204117    0.45221702922087
O          -0.83340925162099   -2.32801692717099   -0.51258387086533
H          -1.08685279945024   -3.10940492837676   -0.01844485004746
O          -1.12895066617842   -0.07930625042971   -2.15657602451250
H          -1.07766653127784   -1.02255445544835   -1.95304781851970
H          -1.82879660519216    0.26909698156190   -1.59564847167165
O           0.56710963087790    3.56074969485872   -0.46483868316349
H           1.11081055598261    4.26083507073621   -0.09987200384884
H           0.07665577991863    3.17609955131379    0.27219905236638
O           1.05246015159560    0.89023500041461   -0.94529900212203
H           1.10569357050356    1.84304206932097   -1.12509969423353
H           0.32184986946173    0.55168664550091   -1.51469476216628
N           1.64646797245006   -1.83307339554518    0.09495663712694
H           1.94768927131457   -0.99699979034039   -0.39254919528444
H           2.42646998463332   -2.47402596262441    0.15037519320998
H           1.37865925508926   -1.55566061290213    1.03838918269829
H           0.16411341962119   -2.20074404116065   -0.34651841678521
