    23
        -45.37143592  Gyration_radius:  2.37451267801 Dipole_moment: 3.740
 S           0.31738101626115   -1.12742781174857   -1.64058530845112
O           1.70185547919359   -0.77027825873620   -1.44156383190259
O          -0.24928739083703   -1.79482544550118   -0.46214127028681
O          -0.52778502536749   -0.03193830858983   -2.07419799645034
O           0.29462776779311   -2.20001860130211   -2.80618349617435
H           1.12038626395684   -2.65126782203083   -2.66427149334216
H          -0.63080282541524    1.18054749706077   -1.04710571552265
O          -0.71487488697449    1.84904472466363   -0.31337351413404
H          -1.49050540715968    2.37136295762337   -0.52571991947651
O           2.04917937024988    1.27393035492992    0.22927766999328
H           2.06445173688390    0.51866525126178   -0.39522793957524
H           1.26751691646879    1.78476383907248   -0.01110928951915
O           1.65941826287644    0.46716382292749    2.70106361307624
H           1.97331957459546    0.73094802997930    1.79620038089989
H           1.88686144246228    1.19265720108046    3.28401111482616
O          -2.73109692179428   -0.65380671010296   -0.36646650063614
H          -2.85520251844259   -0.27218330298243   -1.23777003670069
H          -1.96275586290241   -1.23802703043659   -0.46992904726533
N          -0.64310366746600   -0.12505466545731    1.52125537154087
H          -0.80312035202150    0.72956673180165    0.93608870124810
H          -1.49739946306886   -0.38522809166599    2.00471267563783
H          -0.40316884529303   -0.88583145357157    0.82222164739882
H           0.17410533601341    0.03723708171984    2.16081420484308
