    23
        -45.36906232  Gyration_radius:  2.58020127319 Dipole_moment: 2.296
 S          -1.36514342208393    2.06458657495625   -0.74307252226174
O           0.00673782423472    2.52244635754460   -0.57443346908907
O          -1.50456883055698    1.07584973818944   -1.79846620608627
O          -1.94341087307033    1.62860783292591    0.52023712798648
O          -2.20541031345544    3.32809809420926   -1.20788185677169
H          -2.08096225994236    3.93430773171400   -0.48388392470224
H          -1.47510349921874    0.30531066371230    1.25389637888490
O          -1.20906014376492   -0.60351504985509    1.56836720179360
H          -2.00490833923821   -0.99305800496837    1.93340092600308
O           1.25778773789974   -3.12570963988318   -0.31149382790929
H           1.72500740313867   -3.94534223763178   -0.15158781983787
H           1.43444930103472   -2.55484211032148    0.46624455755261
O           1.89346797458375    0.81785776651809   -0.18097114296802
H           2.64207113809467    1.13770840524408   -0.68663062023980
H           1.19797098048179    1.52980317995857   -0.25176176146518
O           1.54015696817792   -1.28332213799116    1.68773985765741
H           0.63871078524891   -1.05906154488786    1.95608110470341
H           1.88222424313244   -0.48930106153350    1.25477074283410
N          -0.09112474488023   -0.88159179457296   -0.87811340620189
H           0.10610619230905   -1.80184616094482   -1.27584629273103
H          -0.54612792316545   -0.99896558106836    0.05385309324110
H           0.80800369359403   -0.37910236335221   -0.70966399234008
H          -0.70687390262526   -0.22891864798287   -1.44078413803945
