    23
        -45.37372485  Gyration_radius:  2.56764304299 Dipole_moment: 5.659
 S           2.01284593842920    0.89915071778044    0.69163937668067
O           2.00931048253103    1.04671758604648   -0.75862523492047
O           0.94842293922559    1.63508943656920    1.34040340659342
O           2.06103172284676   -0.50482653622482    1.08311966270105
O           3.36847798059714    1.55039494858849    1.20555947946784
H           4.04510643139138    1.04105825090240    0.76972697398417
H           0.33136749851887   -0.99801500291342    2.15780739772771
O          -0.45206167726343   -0.43346318114308    2.15050472865789
H          -0.05965573952230    0.45979578988554    2.04135745332453
O           1.19048351402653   -1.53254871095907   -1.17098790950723
H           1.53665001232594   -0.80121510116917   -1.69661344274797
H           1.58062659726617   -1.35831523162902   -0.28537378464849
O          -3.77936984505061   -1.43748330378700   -1.11014159201840
H          -4.35856281946168   -1.87404782102605   -0.48240537495191
H          -4.33030172842001   -0.95859957681245   -1.73237693443275
O          -0.45070839038210    1.94601638092099   -0.97358402118364
H           0.49181801619663    1.70055734643714   -1.10715196401647
H          -0.43257072752285    2.35665714914190   -0.10061442235168
N          -1.17043009657422   -0.56016278811007   -0.41384975825332
H          -0.36052318578324   -1.09596040734732   -0.82336517508481
H          -1.05074999318300    0.44512429150178   -0.71316626579868
H          -2.07645552978066   -0.93780336438858   -0.70684859281121
H          -1.05475141041916   -0.58812088226024    0.63498597360072
