    23
        -45.37482864  Gyration_radius:  2.38133865088 Dipole_moment: 1.024
 S           1.17410188097154    0.83539314289902    0.96429371373083
O           0.57521551873351    0.11247666919797    2.06517799280797
O           1.88194722597131   -0.05057593571390    0.04216643943657
O           0.23287317528334    1.68957237837319    0.26111639416893
O           2.26093952671287    1.79841553070181    1.60051928821219
H           2.66579233715709    1.24004928465900    2.25689716471221
H          -1.37362629222009    1.52956070622582    0.72221727032585
O          -2.32860623901244    1.34349498994730    0.86539494676126
H          -2.57162189232836    1.81200760442060    1.66490106075008
O           2.15882496728546   -2.35988592698020   -1.56389155369688
H           3.02257885563217   -2.73092571616366   -1.74699851048697
H           2.30489208033019   -1.60551065783686   -0.97509162672257
O          -1.36353108546517    1.24350153300386   -1.91261233067064
H          -0.67991665156784    1.64761910284086   -1.35013644893692
H          -2.18069790118334    1.35347415643933   -1.41437478070253
O          -1.53867540511561   -1.24676387103735    1.17969200301123
H          -2.11204701195661   -0.46148838409397    1.10760160038723
H          -0.76128623444319   -0.91752952421397    1.67743206209072
N          -0.28806676472349   -1.06736094074628   -1.11528581263925
H          -0.02000032918921   -1.87146653597809   -1.67994168645073
H          -0.77855746886792   -0.31538981363700   -1.65574820248172
H          -0.87459492124759   -1.33096041584869   -0.26455175596243
H           0.59406263925382   -0.64770737644332   -0.72877719764157
