    23
        -45.37065784  Gyration_radius:  2.50936246578 Dipole_moment: 2.670
 S           0.54462312699844   -1.57468974901510   -0.73189378488339
O           1.10457046498336   -2.58979102635773    0.12505236042289
O          -0.88044856190482   -1.34724917139856   -0.54730151363710
O           1.29786114887237   -0.32163554855384   -0.67482494875390
O           0.67283225181567   -2.10408496601541   -2.22971587500786
H           1.56888407445604   -2.41952725914681   -2.30475552333086
H           2.55877067995873   -0.38183537602427    1.22561465375035
O           2.17965214858544   -0.94038648242873    1.91096610894069
H           1.78926370997754   -1.68558433133067    1.40958009720409
O          -1.60518527973160    0.39576903255048   -2.40665385059027
H          -1.30513218686410   -0.29545242537142   -1.77746818213082
H          -2.22077202025375   -0.03862679671132   -2.99871527990337
O           0.41751180719572    0.61438546782101    3.15917231351482
H          -0.01484404373726    0.10159855714537    3.84326096935501
H           1.13725713642104    0.03884210844414    2.80074039677783
O          -1.72163794008417    2.68035303109712   -0.99540000430975
H          -1.21162929874312    3.33209673020602   -1.47888408735102
H          -1.79472222995569    1.90104997946580   -1.58852136037019
N          -0.51611566249410    0.96343939024907    0.67785165675157
H          -0.97419674279209    1.79797068651214    0.25121795710477
H          -1.09561429709281    0.12755603132441    0.49737234906121
H           0.35507962158082    0.71115145232576    0.13915857285521
H          -0.28600791719942    1.03465065520629    1.69414696452356
