    23
        -45.38321731  Gyration_radius:  2.2583392124 Dipole_moment: 3.084
 S           1.88248883605017    0.28619123532193    0.03717016579253
O           1.31242943620853   -0.10785209478539    1.32268406921287
O           2.06045175652047   -0.82206471253131   -0.86579453146660
O           1.13004319823750    1.39350895702682   -0.54834705758158
O           3.32706204632281    0.85415728241839    0.34269377940841
H           3.14777153486114    1.63254613516809    0.85967262040590
H          -0.20990558457371    0.93584709748442   -1.52141113184429
O          -1.04339560921226    0.52395418929648   -1.83394111098055
H          -0.81841020354187   -0.40875761995917   -1.99195802579863
O          -0.08591585820701   -2.04717798093457   -1.61624672613594
H           0.77642522721723   -1.62340856432651   -1.36681741346122
H           0.13467794252532   -2.76352664229650   -2.21345765595601
O          -0.75516368909798   -1.77245846344613    1.03981070219560
H          -0.60585101303189   -2.11572012462671    0.14245264721842
H           0.06957266911732   -1.29238615555775    1.26678083568635
O          -0.27704415597618    1.97005237617482    1.60273315827401
H           0.13527802706209    2.15327060770463    0.73782539319541
H           0.25985193845031    1.21497983963856    1.90952641209017
N          -2.13140573964377    0.40404930834044    0.54877620374548
H          -3.12747934912750    0.48442141488124    0.71393074729722
H          -1.87194982471145    0.51147612136688   -0.48089613742230
H          -1.57156635269313    1.13336043266478    1.07370580387332
H          -1.73796521280003   -0.54446262903466    0.84110725221893
