    23
        -45.35637909  Gyration_radius:  2.39870951816 Dipole_moment: 7.591
 S           1.98323737785578    0.32854286946681    1.34804887957998
O           1.63796675770682   -0.91160275924932    0.68680293505823
O           3.05399354605575    0.28951219788246    2.26858400686332
O           2.21287955957002    1.39955964734896    0.24355949665996
O           0.71258596501506    0.85832023771846    2.07005565083136
H           0.14709661100021    1.36342292688245    1.40907091424236
H           2.05454036714128    0.94432524253262   -0.65293356242671
O          -1.05304580245720    0.51043904191594   -1.79473934466549
H          -1.61246573893333    0.78693887726464   -2.52171531298700
O          -0.52445263459648    2.17250696866588    0.23809050773056
H           0.20848174912314    2.71258814101273   -0.07052138760831
H          -0.77046321279003    1.57805740142833   -0.50651116763429
O          -0.72061245898274   -1.64890826697981    1.76605935166062
H           0.17103552546007   -1.55345652864736    1.38670454049042
H          -0.77682696134632   -0.97422719133067    2.44683882747244
O           1.61162984319359    0.01091602842968   -1.79483474324352
H           1.65306921229513   -0.74095684797604   -1.18202274423562
H           0.65935106737470    0.18113951452860   -1.93964209108341
N          -2.19288608818833   -1.53686560049269   -0.66103416293007
H          -3.18569589739527   -1.44865757470468   -0.48267706077908
H          -1.50422592150723   -0.29912057468899   -1.36462215493713
H          -1.72352410507474   -1.60683383581925    0.24826497338050
H          -2.04166876051846   -2.41563991516845   -1.14082634142790
