    23
        -45.36806639  Gyration_radius:  2.53855972543 Dipole_moment: 4.489
 S           0.40614146708770   -2.31606501241051   -0.25313117689568
O           1.11686451503760   -2.29873635155521    1.00356110784030
O          -0.90128162276125   -1.65779983082485   -0.17883580594931
O           1.16528353546258   -1.81292842946693   -1.38513033344434
O           0.11224125166160   -3.85018542934833   -0.55522153111274
H           0.16031342327429   -4.22526649560682    0.31862118541814
H           1.60159379854229   -0.30603466249548   -1.46126250198625
O           1.73066152291433    0.68427338759472   -1.45722805500590
H           2.49644674203778    0.85766940331083   -2.00630081315833
O           1.39382942511475    0.33442284287545    1.32518755748919
H           1.64579721994055    0.58457440728188    0.42631091673701
H           1.32044175359434   -0.64055698229678    1.32686582916527
O          -0.54885219590901    1.78697813404219    2.37153376775490
H           0.13808736205833    1.16757297178881    2.02182097470110
H          -0.06466743970612    2.48949662737355    2.80754223356211
O          -2.22557911168411    2.20610636905860    0.40559807029631
H          -3.03683183220729    1.79873411555826    0.71512219449904
H          -1.59161792956929    2.12975862696850    1.16719864658349
N          -0.99024806112574    0.63125771579302   -1.33770747124700
H          -1.48873060273473    1.30851167299309   -0.69232981254259
H          -1.45533165960858    0.57183342373502   -2.23699672405363
H           0.00087167779500    0.90089864843119   -1.46205428892680
H          -0.98543324923536   -0.34451516278201   -0.86316395971226
