    23
        -45.35545899  Gyration_radius:  2.42412174221 Dipole_moment: 5.695
 S           1.60385946948174   -1.29291445146209   -1.40422792249590
O           1.39698314672313   -0.09565599760746   -2.17636167858733
O           2.75060699194094   -2.07355079370669   -1.67532283886051
O           1.58094635192034   -0.87408070728043    0.10906462101831
O           0.34590633308830   -2.19335913077581   -1.50735540541749
H          -0.45682460718343   -1.65477906346127   -1.25530180931086
H           1.43823708726441    0.11290332307712    0.17562830820720
O          -1.71191701042510   -0.85615530714161   -0.66854467491182
H          -2.50506951711074   -1.38397571996878   -0.77448432938331
O          -0.65806282136732    1.50696745838549   -1.63761253226636
H          -1.26815653809263    0.81895576487737   -1.33056077907026
H           0.01624118130007    1.02434368766201   -2.15189343662331
O          -0.51794450261572    1.81751498058808    2.41735098765342
H          -1.13061178690011    2.51359654215404    2.17355328659147
H           0.20613045974295    1.85418479888919    1.77398902071497
O           1.16541351504425    1.69631165072382    0.19781801197349
H           1.92358434198763    2.09259263320682   -0.23643857227476
H           0.41581495654827    1.73655381721600   -0.47031021027028
N          -0.92044837880873   -0.97355568543139    1.79102334444897
H          -1.36877661142541   -1.57436411697500    2.47052007245029
H          -0.88314373141552   -0.02890629085707    2.17642161941928
H           0.03816918027658   -1.28448970175508    1.67331352991010
H          -1.46093752994250   -0.88813772035035    0.32973136715589
