    23
        -45.37806273  Gyration_radius:  2.42696361751 Dipole_moment: 3.182
 S          -0.15492618531596   -1.19812131052987   -0.08700759530684
O          -1.23642275471304   -0.21301986649207   -0.18744393503406
O           1.05166133837496   -0.71011182983292   -0.72401699931675
O           0.06753090035170   -1.58418421775471    1.30618804954638
O          -0.61016735643270   -2.47263979381503   -0.86922835016514
H          -1.24003099257395   -2.93278428628807   -0.27512854205472
H           1.24345735196501   -0.43422001434051    1.80762281989743
O           1.83562538106533    0.33982081806464    1.69787322070464
H           2.28159432726090    0.14765361404901    0.86420963707887
O          -1.83738900026253   -3.39773688777804    1.28664465315847
H          -1.50340543520374   -4.23254847156778    1.62316182555559
H          -1.20356903545598   -2.70990494067404    1.57553999431004
O           0.64735287379535    3.04390498854629   -1.46483860896459
H           1.58146600062624    3.12354548819208   -1.66495993582070
H           0.32077088849883    2.27500969827353   -2.00590109287134
O          -0.12936849247881    0.78575139376453   -2.56376683814749
H          -1.01384579264691    0.58808555344647   -2.23830956581465
H           0.44482980864011    0.18756421657910   -2.04189553697319
N          -0.11539377829590    1.90704824633271    0.81135483536387
H           0.20770277288769    2.47864342976256   -0.01760851845704
H          -0.64950252020157    2.46834513435966    1.46585282524856
H          -0.70145100796271    1.09998920041347    0.42624363972822
H           0.71348070806548    1.43990984727402    1.27541402833676
