    23
        -45.37738249  Gyration_radius:  2.3815753219 Dipole_moment: 1.633
 S          -1.80808280515739   -0.22906053515358   -0.16476479376424
O          -1.50196915612391   -0.53912152740092   -1.54484357989202
O          -0.96448713636741   -0.98292996803888    0.75761615579158
O          -1.78811309135303    1.19931197514945    0.11008481039981
O          -3.29746820371192   -0.69336363325459    0.12646079899578
H          -3.80873447927183    0.10596026625136    0.03787883322001
H          -0.52927242197546    1.69047820574999   -0.90042385486203
O           0.24636172524934    1.66923012887316   -1.50066596902275
H          -0.07853321335651    1.23859408748530   -2.29712682404268
O           0.70448971186363   -1.89361394809325   -2.26982366647941
H           0.46071795729912   -2.66100922382367   -2.78794859843636
H          -0.13615348128336   -1.44011754251269   -2.05250333421538
O          -0.15788563818668    0.96740882937982    2.40967357295953
H          -0.50670639961443    0.15146115908605    2.00514190586564
H          -0.59233414318489    1.66956213730592    1.91468867748746
O           2.46798269820455    0.54512159595200    2.08277847487361
H           1.54687662981480    0.82888541728322    2.29114701399939
H           2.77155548415361    0.05299881430323    2.84656981189136
N           1.42942899238465   -0.34481247740678   -0.21128825194886
H           0.54558605604601   -0.72474681742135    0.20913297930488
H           2.08529147525738   -0.09920942457157    0.56171617422440
H           1.76976223706644   -1.03528111863027   -0.88587812008526
H           1.14168721224989    0.52425359949850   -0.73762221628027
