    23
        -45.37689229  Gyration_radius:  2.30597972385 Dipole_moment: 5.577
 S          -1.34543512277687    1.14774711434283    0.59488883905931
O          -1.76544266431773    0.44530793357306   -0.62453666541126
O          -1.40410527198731    2.57246267011560    0.49815421974808
O          -2.42016513145335    0.71145116502968    1.70425346965713
O          -0.09326627531330    0.60144698194224    1.09574216725082
H          -0.14356785949989   -0.96925438326028    1.55941573557138
H          -3.06669873641853    1.41016848957710    1.67434920957961
O          -0.19875840946939   -1.95270124584690    1.62649950272922
H          -0.99248361757986   -2.13051779901407    2.13319362153298
O           2.54520882225552    0.10253830516721    0.92344177818891
H           1.65079987170373    0.46495763898754    1.05350466027931
H           2.59598973381271   -0.67156785889146    1.48780520109897
O           1.91714420969219   -0.26087936797502   -1.65529722051548
H           1.47788037907516    0.59386887275108   -1.83312150198005
H           2.35175421161422   -0.13647151270879   -0.78332302760307
O           0.25345504459276    1.89327078577591   -1.68089732573473
H          -0.58653198354222    1.44572607141909   -1.50096980182645
H           0.25322299316490    2.64658549950437   -1.08428926003941
N          -0.21035187504748   -1.61673213823869   -1.05173330537886
H          -0.11639047100486   -2.02422191693316   -0.09951740850126
H          -0.91570647176471   -0.83070205162083   -0.95813007945478
H           0.72349406977094   -1.13860482140426   -1.34529007326017
H          -0.51004544554628   -2.30387845245694   -1.73414273508576
