    23
        -45.37143729  Gyration_radius:  2.37368758099 Dipole_moment: 3.749
 S          -1.16472002306937    0.80294360665677   -1.43503567220460
O          -1.91485131553032    1.31366486932708   -0.31214610292375
O           0.23769082151206    1.23634121469113   -1.39570930348444
O          -1.26119015167143   -0.63193591955126   -1.61712668836348
O          -1.79198727932263    1.46336021370755   -2.73108282862997
H          -2.05078991231835    2.31786070857422   -2.40167759811597
H          -0.69226256133815   -1.49637826850391   -0.40412158474305
O          -0.23305691773536   -1.95645024005763    0.35047625364685
H          -0.00991729064135   -2.82973748720606    0.02276869657688
O           1.51251739161650   -1.06539479368448   -2.13532685678170
H           1.11577729769360   -0.18163820660597   -2.07007529436399
H           0.84171376288774   -1.59270754054716   -2.57340951291207
O          -1.37861336912817    0.10893749796434    2.00073159095374
H          -1.67206698398307    0.62774406404423    1.22249547070274
H          -1.20782544218087   -0.77800763546549    1.66388866436799
O           0.91950867252242    1.02125409536893    2.89329526954820
H           1.05729863227141    0.66317318344734    3.77113872648384
H          -0.01882549092773    0.80340076784148    2.64994794314203
N           1.57157198407972    0.03595874583983    0.51590029831094
H           1.08417364572198    0.65930933266001   -0.18993057075307
H           2.52180358238359   -0.13361811926490    0.20065354142558
H           1.51447092810406    0.46820303624901    1.47139646432059
H           1.01958003903491   -0.85628313552116    0.50294910375418
