    23
        -45.37671625  Gyration_radius:  2.31735459806 Dipole_moment: 7.006
 S          -0.98731644947829   -0.01996761483704   -1.20184885942206
O          -1.07839536658805   -1.11492447779068   -0.22975410287579
O          -1.85582488800786   -0.18831894061366   -2.33136988942591
O          -1.44441862500000    1.27697019304389   -0.39720702339411
O           0.40845988173895    0.24960258038414   -1.53660750075418
H           1.32468495203586    1.37618466274944   -0.77290512633239
H          -2.40213811072922    1.10747922226711   -0.29427082474395
O           2.02818789016487    1.86345015804208   -0.27729208156367
H           2.63707032114201    2.18319050293823   -0.94494958647886
O           1.52267475326553   -1.90610638823112   -0.52309793101559
H           1.26807547571294   -1.15966187663500   -1.10898830889101
H           0.66083429034102   -2.25942000252049   -0.26448235278167
O          -0.43250411859319    0.08043794596213    1.97870163350689
H          -0.70771631752839    0.97422234691139    1.75132707691653
H          -0.73876206751575   -0.46760048346580    1.20931873902759
O          -3.73406699412577   -0.02729237160583   -0.49233913859499
H          -3.50513044605689   -0.81365550200455    0.01128528662065
H          -3.34017749033253   -0.17090261090205   -1.37437437068702
N           2.10985441976237   -0.20082053691163    1.38778344647402
H           2.29266256615357    0.66895301000612    0.82872385956767
H           2.02007764557114   -1.00039203228029    0.68622783429179
H           2.81785144011973   -0.37051883249994    2.09251948258496
H           1.13601723792380   -0.08090896201525    1.80359975796190
