    23
        -45.36691060  Gyration_radius:  2.29141858034 Dipole_moment: 7.432
 S           0.89339965415684   -1.50380636711843    0.06366464016761
O           1.58757521508723   -1.48510900730103   -1.24147926698998
O           1.22845471121365   -2.60033370060797    0.90600897777143
O           1.38296823953806   -0.18427343283481    0.78491863306574
O          -0.54857289443024   -1.31450897623653   -0.15373048654752
H          -1.31355970161423   -0.47705986199063   -1.25440535546655
H           0.78825108506293    0.55778732718224    0.52203615934299
O          -1.66555369371486    0.14109167507945   -1.95279483705688
H          -2.34319230543120   -0.34947935211670   -2.41920457052132
O          -0.62997133138852    1.38829004752225    2.66220189477340
H           0.16772059073773    1.55469079598882    3.16725788879699
H          -0.75076289597612    0.41128774192304    2.67711272373866
O          -0.24841603241807    1.77681183873990    0.08030853455015
H          -0.47868521063999    1.82868331689121    1.04142918042028
H          -1.03470549715872    1.42184459352232   -0.35091820450858
O          -0.72975517340761   -1.30381087356383    2.49970356029786
H          -0.92495358547128   -1.38162983110650    1.55056855477345
H           0.06957231094638   -1.83126091348365    2.60291089751387
N           0.92265311926156    0.70376852239525   -2.26465225534810
H          -0.09932968662463    0.56795689870916   -2.43008624495975
H           1.01721478620975    1.41688027406964   -1.53903689271013
H           1.28909384521211   -0.29999744009021   -1.84248842477150
H           1.42055443085729    0.96217674442270   -3.10932511634620
