    23
        -45.37876341  Gyration_radius:  2.39259586572 Dipole_moment: 5.193
 S           0.06409176723278    0.55101852481713   -0.73995780246799
O           0.11958062317531    0.87927084856324    0.69612008615278
O           1.25932948345916   -0.14524359898946   -1.16902921081446
O          -1.13666734970994   -0.23721827531476   -1.02549917005241
O          -0.03045081953056    1.88303502444920   -1.51878573597023
H          -0.63403623571896    2.45866101704668   -0.95847714230435
H          -0.65829774985625   -1.76949667137693   -0.62676749344361
O          -0.13464554413906   -2.56257866640604   -0.35984215387896
H           0.51406790998976   -2.65756516197689   -1.06232516527692
O           3.34051328589225   -0.75765221318588    0.30575550527501
H           2.65816729737632   -0.39732926026714   -0.30953348384788
H           3.96521816179227   -1.23516718117696   -0.24217566947482
O          -3.34866736124725    1.04973932311460   -0.35606557409640
H          -3.88880964525600    1.08547032567953   -1.14732599205223
H          -2.57881965831166    0.48170965282627   -0.58016082547883
O          -1.56168947318165    2.95949681440515    0.23435526490256
H          -1.02980117503967    2.44147785468111    0.85566533054290
H          -2.37759111775091    2.43139452446098    0.09741089420234
N           1.09788990535279   -1.31493166313748    1.62221190949033
H           0.67931727704843   -0.35188930270454    1.39097394100637
H           0.60613787450752   -1.97459839449953    0.95406101353306
H           2.10201168529521   -1.24939685128225    1.34337229967748
H           0.97315086858928   -1.56820666987979    2.59601917437934
