    23
        -45.36331150  Gyration_radius:  2.30747117959 Dipole_moment: 9.836
 S           1.91494732461911    0.54324568614747   -0.41681007608470
O           1.76105334657103   -0.89912779190297   -0.64043796809553
O           3.20239540649402    1.06572228201194   -0.70730636856328
O           0.87362112100851    1.23486056147714   -1.40218419514647
O           1.40162168600819    0.86770295650790    0.93452187081486
H           0.88574965434633   -0.48163716541343    1.53837232366690
H           0.00009300449092    1.14417322914552   -0.99643978538045
O           0.55110331157413   -1.40964551385599    1.71374137359417
H           1.20167267671391   -1.94278222474205    1.24276038351560
O          -0.09585606368109   -1.81875357920490   -2.11423620594288
H           0.23748262115444   -2.63653262817629   -2.48603021681640
H           0.68919496798052   -1.39463177661234   -1.65286424145177
O          -0.36400343293395    2.65265628527838    1.53443437863952
H          -0.48205099801811    2.57876611973744    2.48283639440937
H           0.43026804046173    2.09775856410949    1.32060919983967
O          -1.68482518375808    1.33166614657850   -0.27459262978788
H          -1.28791478894360    1.87718283257858    0.45894603242505
H          -2.06002297459667    1.95277622690792   -0.90042492432908
N          -1.46629450563954   -1.36603418609203    0.07816701409477
H          -0.67498437400395   -1.42618989809748    0.82352878715122
H          -1.72685093818900   -0.37049378042216   -0.02344924205832
H          -1.03706895550926   -1.66994872868090   -0.84416650915062
H          -2.26933095612402   -1.93073360727666    0.33102461467121
