    23
        -45.37652858  Gyration_radius:  2.26370476212 Dipole_moment: 2.748
 S          -0.51452510325547    0.22418961859313    1.83245335174454
O          -1.21337496282984   -0.81709403739609    1.10874416269037
O          -1.35579044310046    1.09939861067684    2.59031561210392
O           0.43880457131435   -0.52830431770367    2.89340529270618
O           0.43225410844793    0.92681854194457    0.95230953305362
H           1.37788361927491   -0.42909534306666    0.66637311085104
H           0.09459689558277   -0.25055321364805    3.73705896125538
O           1.91275183976441   -1.19749513453874    0.37520059611038
H           2.08548158985330   -1.69344464516378    1.17729102180351
O           1.77918426076255    1.14471628837147   -1.40103356164181
H           1.40108524360503    1.36474251491373   -0.53191574835324
H           2.34560435950625    0.38478608489314   -1.22807720989275
O          -1.85837222763600    1.64251111057425   -0.25961622558542
H          -2.55032185554730    1.32435441961138    0.32563739735019
H          -1.05255374418653    1.61271038360241    0.28371721141877
O          -0.27610363566391   -2.07415009848642   -0.97817661814457
H          -0.77587214501520   -1.78452869526216   -0.18021258436816
H           0.65104261445782   -2.00276744676201   -0.68167670325134
N          -0.59838795339765    0.21436196086173   -2.17024250086196
H          -0.91986842467513    0.24679889416295   -3.13095813070977
H          -0.52259400467212   -0.79600225745043   -1.79078675363908
H           0.35873600145198    0.64354465274570   -2.05660590645109
H          -1.23966059402234    0.74450208857760   -1.53320430817052
