    23
        -45.36551857  Gyration_radius:  2.45072478805 Dipole_moment: 6.291
 S           1.44398800516918   -0.76105025421567   -1.77275064996984
O           0.43417148108269    0.06754236695076   -2.38959693650516
O           2.07585955096078   -1.72707787443681   -2.61180341069096
O           2.62520304669989    0.23466706422545   -1.28825775157069
O           0.93985576935034   -1.30152313436310   -0.49171417109165
H           1.21053843475386   -0.05853206810392    0.49742211553022
H           3.21748513462346    0.13351133149425   -2.02456065855613
O           1.24745705539949    0.71359356391102    1.11706942179458
H           2.13210712226965    1.06995156705905    1.01460630747151
O          -0.42774159331623   -0.56788115684277    2.81966658335659
H           0.18400146015480    0.04085212188261    2.36015793175909
H           0.12528239728307   -1.20892049140249    3.26977444606234
O          -2.69161346918691    1.05193398246000   -0.24228994946542
H          -3.03103037281966    1.58878162914224    0.47573891059317
H          -1.85557337067830    1.50889263925658   -0.55621363681311
O          -0.34385983373569    2.00005803357976   -0.79376534987941
H           0.19633847893330    1.75943900413758   -0.02429833594182
H          -0.06253085051643    1.37788084207223   -1.50320226053344
N          -1.50367331125810   -1.20175297821203    0.42566991617942
H          -0.57796837432907   -1.26240220562480   -0.09492688436787
H          -2.04670186146485   -2.04440018845762    0.27377637947927
H          -1.25006945566132   -1.07585305228546    1.43256043219350
H          -2.04152545371449   -0.33771075222942    0.10693756096937
