    23
        -45.36611085  Gyration_radius:  2.33549169703 Dipole_moment: 6.232
 S           0.04634666155702    0.02388997389603   -1.54355944750029
O          -0.39026525146284    1.05462335731973   -0.56423495837536
O          -0.29465587002245    0.35497973991421   -2.88489878314725
O           1.59430175673154   -0.11396290411233   -1.36593209472705
O          -0.45350600422012   -1.28515266064571   -1.09958698133354
H           0.29474358957947   -1.42230766687614    0.31484544573251
H           2.01983073654742    0.77461797236728   -1.31060242995644
O           0.57110557725520   -1.43958181511587    1.26874220442002
H           1.00394569072505   -2.28423675592522    1.39949586773122
O          -3.00901595786875   -1.50162251384158   -0.58141602568652
H          -3.49622870748441   -1.11331549838053   -1.31014950569030
H          -2.07795931899976   -1.58452642596051   -0.89955282290962
O           1.41189541524749    1.30203483806598    1.38377002380697
H           1.46411016743137    0.35001619293069    1.53965679896755
H           0.72149487003504    1.39095287915731    0.69729912355909
O           2.91804313999846    2.05628280882109   -0.71928261924809
H           3.84063100851882    1.81090088337709   -0.62654819198641
H           2.51150174625020    1.97397250506828    0.17060669891884
N          -1.76330723676578   -0.06415899894624    1.26719408111140
H          -1.03197027470541   -0.68598281713075    1.65115343471814
H          -1.23719732235168    0.51566650685138    0.50303485553624
H          -2.46131018018072   -0.63583728033518    0.73017494410862
H          -2.18253422581616    0.52274768949965    1.97979037195115
