    23
        -45.36680801  Gyration_radius:  2.24457136044 Dipole_moment: 8.647
 S           0.41906892930043    1.11402858019634   -1.70676317103013
O          -0.68583127298657    2.03189272339340   -1.83544489492478
O           1.63295786214780    1.43339149315372   -2.39178173109339
O           0.79331087886913    1.16618877311812   -0.11673366261532
O           0.01824581757939   -0.28974680653408   -1.88099831460367
H          -0.94263789271375   -1.09743147645575   -0.97253350373282
H           0.71818533086411    2.08668716906628    0.11643590335245
O          -1.45273987344677   -1.65001022906868   -0.30917944355575
H          -1.74497527797733   -2.42497130800072   -0.79125083331144
O           2.29376962740573   -0.96170159823597   -0.81309626464045
H           1.50277925780344   -0.82127964751617   -1.37932882875633
H           2.82729251099996   -0.18292045216865   -0.99465156106253
O          -0.52066482337087    0.89990312294437    2.37047228310464
H          -1.07258678052123    1.09933933237395    1.56746527510378
H          -1.13950534650334    0.81421618453556    3.09747675452258
O          -2.06546759615982    1.13796140039730    0.24246917983114
H          -1.64911253909971    1.54390978896311   -0.54963772829110
H          -2.21366377217107    0.21298281861081    0.01428620998642
N           0.67065225417121   -1.23829611864594    1.29036539709576
H          -0.16671918313819   -1.58250546001826    0.76230439436689
H           1.41280257576879   -1.02870661731880    0.56028004517727
H           0.36254529893977   -0.34225895432781    1.75617917597736
H           1.00229401425379   -1.92067273848216    1.96366529910756
