    23
        -45.38129270  Gyration_radius:  2.28560096141 Dipole_moment: 2.183
 S           0.28968413105879   -0.55476206637536   -1.70015997593767
O          -0.83929181181691    0.35091005724399   -1.58346970068633
O           1.48964418453654    0.00136447220117   -1.08093743594819
O           0.01941250114265   -1.89866640186337   -1.23615672312921
O           0.58969867042553   -0.66937355405567   -3.25118537615325
H           1.11405918986453   -1.46185378528169   -3.31109257428461
H          -1.45516745666390   -1.77678990205453   -0.38512527743759
O          -2.26084431256557   -1.44398167137969    0.05841079042970
H          -2.60398052875301   -0.78355322774903   -0.54913047040127
O           1.20988284293963   -1.23384614764352    1.26280241809622
H           1.38899724150063   -0.79544851032463    0.40765205114798
H           0.95798164387122   -2.12852116589322    1.01951916859139
O          -1.11852142240917   -0.17837236126702    2.11799587888428
H          -1.68788025909036   -0.71156083315279    1.51728168300271
H          -0.23203656898688   -0.58960118847926    2.03347846818512
O           2.00764065089558    1.97648682139679    0.62001415498952
H           1.98691843434160    1.34508974854707   -0.12848991260142
H           2.37852220403742    1.48267721723865    1.35587910676957
N          -0.65991439714081    1.84809952865834    0.57130046389028
H          -0.91693347323342    1.10330806736455    1.31597845041192
H          -0.77081439999592    1.36211340226903   -0.35930967433099
H          -1.24587874443891    2.67308166650905    0.62964857022503
H           0.35882166048315    2.08319983410772    0.67509589630282
