    23
        -45.35094043  Gyration_radius:  2.37643986567 Dipole_moment: 8.140
 S           0.48225332032338    2.19157690919556   -0.64271328603104
O           0.79173626475871    0.87409955689714   -1.13454127434722
O           0.39258626118506    3.23673474578628   -1.59110357112998
O          -0.84722719876227    2.07491568460180    0.18770695593614
O           1.49320915641829    2.57380340993738    0.46270420676777
H           1.37263629068045    1.89319415934061    1.17518827167803
H          -1.31800733849935    1.22836317985147   -0.02750399941502
O          -0.27955958144390   -1.47993555414199    1.39623784872352
H          -0.34301024230756   -2.27383072000763    1.92893019498348
O          -0.75477587065484   -1.03732100383128   -2.48014560784166
H          -1.52689029177362   -0.88171076290024   -1.92838303962355
H          -0.15427613177387   -0.30893235606034   -2.26643693820428
O           0.78311366684750    0.84981638854716    2.28036342255212
H           0.01450432559114    1.33006679774511    2.59729447456880
H           0.45533137620128   -0.01598370117991    1.95616204334854
O          -2.12182554185128   -0.20019958739244   -0.05242084112682
H          -2.93307569254956   -0.13550428704531    0.45530741885052
H          -1.49011333878705   -0.74591835325593    0.47095771767937
N           1.28307643573074   -1.90490345011145   -0.60555749769891
H           0.67546313147792   -2.16536618042508   -1.37979040968422
H           1.53591085276327   -0.93480149433864   -0.78186878809626
H           0.36806912217007   -1.69735149062382    0.62251285952369
H           2.12087101416609   -2.47081191057582   -0.64290015139165
