    23
        -45.37269723  Gyration_radius:  2.3770343409 Dipole_moment: 3.504
 S           0.82038990660343    1.14036959721908   -1.42237420419741
O          -0.25923282787386    2.09389237116135   -1.47774035907432
O           1.43501133904405    1.04924150536991   -0.10404093941762
O           0.46869832756634   -0.18528975759280   -1.92118609918659
O           1.94347299228586    1.67545805959662   -2.41077121792660
H           1.86418063899674    2.61872757082832   -2.31090730554907
H          -0.86120150083139   -0.85868113745101   -1.26720578853425
O          -1.52243653514322   -1.30408915639507   -0.68056932501803
H          -1.69673049499829   -2.15700196986239   -1.08274809292118
O           1.86110462363645   -2.08111361085886   -0.57804278289527
H           2.74732006206733   -2.14008246976682   -0.93585270698313
H           1.40360261411439   -1.41406243997977   -1.12566162352752
O          -1.13002595156631    0.62129582895407    2.97875914044266
H          -1.92882545181096    0.53375046694081    3.49999900116725
H          -1.40087932542680    1.04189671493527    2.13026359893357
O          -1.87726339372708    1.28415773919984    0.49717662933952
H          -1.31784671112245    1.73104843064491   -0.16757215313542
H          -2.14860644509620    0.45828538572478    0.08141686842382
N           0.32026536638670   -0.84341486312105    1.28918135875766
H           0.99481239162884   -1.59560902552155    1.41260620335423
H          -0.09622911054867   -0.46308153937106    2.16257916626481
H           0.81882443362205   -0.04441765304195    0.78201290871148
H          -0.43840491777742   -1.16128003762305    0.65067774296119
