    23
        -45.36680808  Gyration_radius:  2.24441366413 Dipole_moment: 8.656
 S           0.05581822176893    0.88409586634312   -1.88314274399692
O          -1.05277297837722    1.80649255581319   -1.89434574173902
O           1.09957328293221    1.08545714105111   -2.83936731875948
O           0.75290897117988    1.12255824073560   -0.42436550018024
O          -0.37137375565386   -0.52000184790185   -1.79312370470674
H          -1.12203076416247   -1.18436863014554   -0.61197854767923
H           0.71225741663211    2.06479214367119   -0.29061938116552
O          -1.48374472521466   -1.63684705369944    0.20669197889722
H          -1.87273673001530   -2.45600188807577   -0.10317834530691
O           2.07714865815711   -1.11092577036853   -1.14090171997429
H           2.55961087549661   -0.37282239348652   -1.52367339894267
H           1.18588765016575   -1.02239933520867   -1.54567576102849
O          -0.01828657648714    1.19766091407506    2.29374156301944
H          -0.47091284350041    1.21913705513215    3.13842660977551
H          -0.72655647230778    1.30915337401603    1.60432994417740
O          -1.97129822700046    1.20944072402782    0.51768798533823
H          -2.16145522253180    0.26705977664320    0.44342983824343
H          -1.72903897772637    1.50398121289160   -0.38799449078897
N           0.92635104769308   -1.08637580443309    1.26896040222375
H          -0.00194473105663   -1.47212356204587    0.97288533448654
H           1.50027967153894   -0.98699350188913    0.38069967820644
H           0.72057633742284   -0.13246953344941    1.67185425621926
H           1.39173986104722   -1.68849970369657    1.93965905368125
