    23
        -45.37899831  Gyration_radius:  2.30294345068 Dipole_moment: 6.079
 S           0.94663575584223   -1.00403157033158    0.25437916412453
O          -0.17215814338015   -1.72381215385920    0.83592773237956
O           0.79956032634954   -0.78006692113714   -1.17229191188856
O           1.16689320906530    0.26755664029506    0.96713130849088
O           2.24687113808493   -1.85686786224940    0.43412927208918
H           2.27553292286191   -2.01831612258386    1.39702727870388
H           1.24563209466192    1.47818929028375   -0.20705814556561
O           1.09276443239868    1.92490024251932   -1.07127515990628
H           1.31416493279818    1.22698549385634   -1.70020912725446
O           1.45008639920943   -1.74524949978755    2.96054060906332
H           1.52662829833718   -0.78665937406286    2.99774688635855
H           0.63800224019590   -1.91992324742954    2.45359635324292
O          -1.41003597044487    0.59438686579054    1.39985909183611
H          -1.50271619486069   -0.36416509201217    1.28016901667065
H          -0.43625186693991    0.69119179174620    1.45542893588027
O          -1.54050551213898   -0.60467644875232   -2.32148347718838
H          -0.69060200919297   -0.81611006578240   -1.86291281465137
H          -1.42446076067699   -0.88501092431702   -3.23059470555397
N          -1.53165862515618    1.69243242652056   -0.98801914431478
H          -1.70948785223584    0.88734693853560   -1.63479679507385
H          -2.14331151684360    2.47983277767823   -1.17074162489193
H          -1.64387623569926    1.31757227300224    0.00432821290484
H          -0.49770704223906    1.94449451205858   -1.08088094545941
