    23
        -45.36389520  Gyration_radius:  2.3406025739 Dipole_moment: 6.178
 S          -1.33837945556615    0.60914840815167   -1.67790984982306
O          -1.93361357867395   -0.69140447384436   -1.79953317629086
O          -1.37492367301645    1.47301089626702   -2.81539381521643
O          -2.18329441372097    1.40315202946577   -0.53182647122762
O           0.00034889175750    0.50938124723740   -1.05212341268817
H          -0.63817216018470   -0.75986377181596   -0.15568640510124
H          -2.61171660343796    2.03936609860132   -1.09338965684901
O          -0.79551086871200   -1.48685327358347    0.49029770080555
H          -1.42584491321100   -2.04594209523655    0.02686725608992
O           2.24917379662757   -0.74971345954862   -1.56790788755019
H           1.36975787937905   -0.30569100285481   -1.55186744215869
H           2.83960134774502   -0.14389250086767   -2.01832961047100
O           0.97780835833619    1.34388923019040    1.28536047304210
H           0.67347119339179    1.31664919215003    0.35537822299928
H           0.14189916108478    1.25339999392088    1.79931292746930
O          -1.47333013055277    0.67588647247023    2.10056417203625
H          -1.93286227851386    1.12015824969224    1.37583387515428
H          -1.39202030904066   -0.24430539095666    1.80442745782873
N           1.79931012842242   -1.09171265971791    1.03100658288692
H           0.86935520819613   -1.55106114903596    0.95984252495848
H           2.19584722512066   -1.07405000828051    0.05935200480403
H           1.57369334217706   -0.05317277605599    1.27581618782881
H           2.40940187237874   -1.54637928635264    1.69990834147952
