    23
        -45.37249401  Gyration_radius:  2.41142943026 Dipole_moment: 4.534
 S           1.13531846202072    0.77194644703911   -1.86777929746315
O           1.65113369210289   -0.59782758677062   -1.88481695187444
O          -0.05519501223661    0.98169992624584   -2.63030169866305
O           1.00916885668533    1.22810028946509   -0.47322396600869
O           2.28440840897174    1.66217553192934   -2.50628192184972
H           3.06173217559220    1.37759101540694   -2.03558789995080
H          -0.60883494552467    1.25587560206895   -0.39859713519696
O          -1.59137129271356    1.15341039473032   -0.40971269208991
H          -1.79966933466682    1.29831964304938   -1.33900550832569
O          -1.94172417280821   -1.45258919972477    0.21406117989628
H          -1.91517702680313   -0.54739772710929   -0.16686230712352
H          -2.14992008645965   -1.31869928885898    1.14415079212017
O           1.10147148968652   -0.02491759131588    1.87968731516294
H           0.20291929008159    0.16664241217987    2.20564069992987
H           1.22256125514588    0.57786862918338    1.11795859782335
O          -1.56325807853262    0.61835189805060    2.29757185772973
H          -1.69376771901404    0.96173041967369    1.39759792946721
H          -1.74285265292702    1.34532368596886    2.89530814717769
N           0.68287274109641   -1.92534512586498    0.11474148172462
H           1.03941081759481   -2.86994934046971    0.20394651962076
H           1.08385475731868   -1.44830334837023   -0.75739092418953
H          -0.36782842351504   -1.90729353797037    0.06125560820383
H           0.95474680888735   -1.30671313856631    0.93764016387571
