    23
        -45.37623371  Gyration_radius:  2.39710313687 Dipole_moment: 1.818
 S           0.82884226948750   -0.01570855640342   -1.69382669957759
O           1.67582356258422    0.05604995811869   -0.51003412298931
O           0.18980120368863   -1.29783303108482   -1.85703220116590
O          -0.11723722986440    1.09758607903822   -1.71893184995089
O           1.78757567779807    0.18058259300314   -2.94018182523817
H           2.24683399368614    0.99462637811547   -2.75300960639421
H          -1.49909939879548    0.34546287019679   -1.08915741648324
O          -2.08236538293911   -0.23493220062100   -0.55659739818740
H          -2.11021003527030   -1.06209570384183   -1.04566421124599
O           0.17593551113493   -3.08821647542492    0.14923975262150
H           0.18954336803249   -2.49816247165466   -0.63243291176093
H           0.65640705850680   -3.87525878124453   -0.10861185968653
O           0.00177526799084    1.44950531409775    2.88447102952405
H           0.86572941712560    1.73401477502638    3.18638426208510
H          -0.17568759392475    1.95930485617178    2.06219323220932
O          -0.43569903005596    2.58719332053697    0.48407987114271
H          -0.19552440056894    2.07714069788213   -0.31670151669170
H          -1.35287006108929    2.83864555530028    0.35709288248568
N          -0.13540429941551   -0.65998913755367    1.25265611620376
H          -1.01077420888325   -0.49669806936595    0.69375041951541
H           0.67061976833478   -0.37003848248022    0.63195791342821
H          -0.12997538824731   -0.05422621533378    2.10125188537616
H          -0.04404006931156   -1.66695328246064    1.41910423475044
