    23
        -45.35094043  Gyration_radius:  2.37647981644 Dipole_moment: 8.134
 S           1.62683649658547    1.62380506467913   -0.40616870973833
O           1.54440420206604    0.19010770340043   -0.51135705217220
O           2.48934406125630    2.29493827993035   -1.30363165901100
O           0.16087585949983    2.18040543193134   -0.51823687365423
O           1.98275347825634    2.00936530703311    1.04799090553286
H           1.23792108744731    1.65821387762200    1.60255164397384
H          -0.44309234855716    1.49352518722604   -0.90281497916683
O          -1.55356763630058   -0.80700980182263    1.07307073562877
H          -2.21124294863429   -1.33366044556887    1.52927721724995
O           0.25446373997805   -1.48579688335075   -2.35101498447017
H           0.90658895638094   -0.94465974370349   -1.88339053746431
H          -0.53628226733925   -0.93920288590318   -2.37858481961075
O          -0.21136676191682    1.24564251483047    2.22336560789486
H          -0.66209602541475    0.46385064621729    1.83882119788275
H          -0.74003870446199    2.00999357605915    1.98228336819093
O          -1.64335969423412    0.44361372052348   -1.28478569935401
H          -1.67262808513179   -0.07316152461706   -0.44645888978936
H          -2.47867779748962    0.90857677839189   -1.36361271465704
N           0.44857107911366   -2.29209574778169    0.42894633188700
H           0.27721570496032   -2.58539421656959   -0.53083238448460
H           1.14365731866180   -1.55171225293315    0.35956946494385
H          -0.76992868806747   -1.44227775694399    0.85410100677725
H           0.84964895349754   -3.06706681853842    0.94091181366223
