    23
        -45.36225760  Gyration_radius:  2.34059288671 Dipole_moment: 9.634
 S           0.60090743229824    0.21558838172825   -2.22805813804345
O           1.76128849815553    0.43688889884143   -1.33330264042904
O           0.95382514149856   -0.23347710124613   -3.52941697830222
O          -0.22061542317112   -0.95218358487563   -1.47965475658105
O          -0.31923731943761    1.34396801715458   -2.16850197603587
H          -0.94514709652104    1.85013571887027   -0.88302666424489
H           0.44478407458159   -1.54697910498000   -1.07502864046292
O          -1.29144715734009    2.17245320203963    0.01448251268326
H          -1.70624895720088    3.01717446102309   -0.16378201582599
O           1.17082914938394   -2.53688119423896    0.13121348652509
H           0.80211642868725   -2.11665537321018    0.92834454365166
H           0.80641982277645   -3.42273038071606    0.08343032592848
O          -0.12193692525186   -1.09061741020213    2.10521419557246
H          -0.46229862237819   -1.35445178531124    2.96063851130366
H          -0.92070947007171   -0.88617452128289    1.53054191515684
O          -2.03509827129148   -0.43027874831715    0.48106700863395
H          -2.02911273015833    0.54004419084643    0.42267068738138
H          -1.61650796437519   -0.72013561122521   -0.34921141076032
N           1.02939992347067    1.15482575871386    0.94898782755161
H           0.78195258200927    0.32086645570959    1.50196099812247
H           0.17370403020249    1.71453155257888    0.77148910622268
H           1.74441721914033    1.70239541587584    1.41305696210982
H           1.39871563499332    0.82169276222422   -0.08311485015774
