    23
        -45.36312993  Gyration_radius:  2.42070028752 Dipole_moment: 7.769
 S           1.77076347420858    1.44063465969214   -0.40009083696922
O           0.83512084212954    1.18584335135325   -1.50782896773736
O           2.91898080089082    2.20106520690203   -0.74483684412642
O           0.89934210409038    2.29117014502637    0.66026493123020
O           2.05140564934598    0.18735717974958    0.31547826517824
H           1.37139803507985   -1.01648639798225   -0.54739825499921
H           0.02713227017615    2.40633327766069    0.27340672482034
O           0.70002584441591   -1.45887808151788   -1.12850228776165
H           0.66016748042284   -0.85523008118048   -1.88129548592465
O          -1.37728619400444   -3.24382392288093   -0.18314694858497
H          -1.32455074919855   -4.19681419405827   -0.10429574074822
H          -0.56646185749166   -2.95886517917684   -0.62603546006196
O           0.47502099453276    0.12300543428738    2.38481163417333
H           0.45633338922250    1.04414947233155    2.65699578826887
H           1.20041832126812    0.08384529832609    1.71084651387857
O          -1.49906674121943    1.80525866099427   -0.76015981608933
H          -1.96908861664376    2.33627592715591   -1.40402582844742
H          -0.62625509097554    1.54941592958720   -1.18655603940936
N          -1.23476847555489   -0.58031412089760    0.50541626134279
H          -0.51612785206557   -0.93604858973290   -0.19018771153496
H          -0.68726701151405   -0.32907234269707    1.38100295868456
H          -1.67488553516889    0.26544637834967    0.11108375882140
H          -1.89035104196034   -1.34426800132341    0.66505338600519
