    23
        -45.37436754  Gyration_radius:  2.41589029915 Dipole_moment: 3.690
 S          -1.56783559129366   -0.58041732259355   -1.23248924857855
O          -0.40800526193018   -0.22194055275904   -2.04129982119597
O          -1.42305795550986   -1.85651574349297   -0.56864571848256
O          -1.92652323327562    0.50189689769358   -0.32118852155391
O          -2.78610661149190   -0.74304552747550   -2.23617473261380
H          -2.86191452229365    0.10794305180360   -2.65736760215407
H          -0.62712242371645    1.51976053772153   -0.29667632954967
O           0.30377502686127    1.82307988824124   -0.42594943006971
H           0.50523865695931    1.48238778985768   -1.30754439103231
O           1.28437244780593   -1.95002761195541   -0.98584169436790
H           0.61710952921788   -2.61166287878203   -0.77054768913296
H           0.79019279726521   -1.31876057386955   -1.55379878967736
O           2.27946823563591    2.26373391848472    1.62803489653776
H           1.64305707893055    2.46505775710633    0.92920154076458
H           2.61718112701651    3.10351353369171    1.94084582013484
O          -1.20668974140918   -0.98808610775414    1.89768315790801
H          -1.36678810825298   -1.51258658420919    1.08207314028262
H          -1.73621974192685   -0.19616221936504    1.74999947225518
N           1.19808974477860   -0.26722841122800    1.05536942669341
H           1.97283646851304   -0.03914074450902    1.67337332201312
H           0.33072402379779   -0.57431363545464    1.57985566256431
H           0.93953008140027    0.60088588046684    0.52463100498977
H           1.42868798290633   -1.00837134162491    0.33645653426116
