    23
        -45.37922913  Gyration_radius:  2.27276111887 Dipole_moment: 2.393
 S           1.10326906115551   -0.59880841185283    1.39532634802641
O           0.48206288165899    0.67189924437497    1.76516645162975
O           2.53151585797282   -0.60295341840671    1.51025749338247
O           0.53650489494510   -1.67101735963202    2.44482108295042
O           0.60130829049744   -1.07378902614111    0.11199266426663
H           2.69298975223073    0.86431469670902   -0.09391380711724
H           1.13643312624924   -1.59796129360483    3.18070617709003
O           2.02034984079080    1.54634065351153   -0.19416458881770
H           1.50215071296661    1.46784603321919    0.62992166946718
O          -1.98595418067730   -1.42827144898884    0.30867965746446
H          -1.00222940039561   -1.37173517349119    0.28934788284954
H          -2.19894711661369   -1.89369732280932    1.11865264981595
O          -1.71687588819863    1.27068219534387    0.42150860961484
H          -0.96737203649828    1.16939641623326    1.05034582574080
H          -2.09285733307308    0.37110874568947    0.36016599703921
O          -0.45284277452251   -1.18225780519661   -2.33778503721829
H          -1.31845257254065   -1.47829941834023   -2.03763012807043
H           0.13788926603304   -1.35780784506139   -1.58347313475595
N          -0.20208539620202    1.39813705610133   -1.69890151130299
H           0.74997042237954    1.46619324581906   -1.26113649914504
H          -0.30523641456327    0.44104093936669   -2.12650551941613
H          -0.90285087392449    1.44978344208719   -0.87920502339757
H          -0.34874014966893    2.13985582507474   -2.37417724009453
