    23
        -45.38323900  Gyration_radius:  2.28444809139 Dipole_moment: 1.720
 S           0.57645146251722    1.71582556974492   -0.53878711607671
O           1.59703622174292    0.71115534443958   -0.80204734894328
O           0.56814759625740    2.17517816566958    0.83347419412330
O           0.94596176268554    2.98514641309389   -1.41084366694214
O          -0.73582920750582    1.26295503765452   -0.98717231713989
H          -0.41808740516410   -0.03436619249953   -2.07553767304719
H           0.98962046694522    3.66430458162257   -0.74603267112915
O          -0.04160214758501   -0.84178977563385   -2.47538217619447
H           0.90644509637319   -0.68194861642390   -2.46786771624092
O          -0.68160866460451   -2.39507277145771   -0.39332732065186
H          -1.39138103234099   -1.84906651058041   -0.01493510104380
H          -0.50404544021373   -1.99887825722738   -1.27774612435473
O          -0.18547584354703    0.25621208902811    2.50511196827177
H          -1.05062556717787    0.04648912160291    2.11718936672423
H           0.09517307007196    1.08274535873246    2.05645357181749
O          -2.13954095130959   -0.26196932055959    0.61577029921606
H          -1.64796753806781    0.34655681656509    0.01246874124609
H          -3.06749814969108   -0.04872869840138    0.50714322609954
N           1.26565144311558   -1.24855624501483    0.92102453768411
H           1.54576690805476   -0.49874404576470    0.23543240238221
H           2.06650266428924   -1.77825350769136    1.24521443948372
H           0.76562168367788   -0.74368592216337    1.71553788156314
H           0.54128359148185   -1.86550862474898    0.42485861315107
