    23
        -45.34885174  Gyration_radius:  2.38541090088 Dipole_moment: 7.234
 S          -1.04450448202737    2.04191478338979    0.77262352672216
O          -1.58549420514228    0.72492940936255    0.97661292176065
O          -1.95100305520958    3.12168573451834    0.64687375603866
O           0.00203573240184    2.35196923259703    1.85570401483514
O          -0.15409615352170    1.96007085185642   -0.53319150648384
H          -0.21065345336372    1.05642474406013   -0.92643891705495
H           0.55896746741064    1.51595919157881    1.93428641729690
O          -0.08204241342914   -0.39474168365652   -1.77001568292137
H          -0.37100227403024   -0.23049379208407   -2.66919153599697
O           0.90221280954941   -2.21674750034737    0.45420747586469
H           1.82631912069135   -2.46181670327077    0.53684258311706
H           0.80361859507679   -1.78100645701736   -0.39883755818701
O           2.39114669927480    0.50931479383794   -0.74690372480705
H           2.33767745832733    1.46329800496767   -0.84370301988537
H           1.64823578973091    0.15179155744709   -1.25485842557093
O           1.38809776676340    0.20484727748321    1.76626579986011
H           1.91196535962053    0.31384786306320    0.94599019674045
H           0.85911773763576   -0.59578526805978    1.62696230057941
N          -1.93758223568834   -1.63558593875140   -0.47348352526828
H          -0.84303297703989   -0.91572419822900   -1.31092280697781
H          -2.85149874868973   -1.89837130688566   -0.81826755885809
H          -1.54757532655761   -2.41763858062210    0.03858348564785
H          -2.05090920177358   -0.86814199524845    0.19086179353761
