    23
        -45.36857978  Gyration_radius:  2.54522636053 Dipole_moment: 2.309
 S          -0.41005937870841   -2.06956884568924   -1.34847081371772
O           0.99374174423608   -2.28474456009747   -1.59797427742728
O          -0.79307707722595   -2.39265784899532    0.02430218923310
O          -0.86282015232385   -0.73003135227132   -1.72503877126439
O          -1.21447811775068   -3.06477841016892   -2.29219528600201
H          -0.71693841971552   -3.87597596295533   -2.23916542750818
H          -1.57092122685178    0.45751135505454   -0.82238152828224
O          -1.84487551338103    1.12258309342127   -0.14506916786923
H          -2.80218635286433    1.14415251500518   -0.16387633875594
O           1.47955993218623    0.30708527829174   -1.07158458719853
H           0.62876929188535    0.13428098872590   -1.52470891383059
H           1.98216133542134   -0.49195359453684   -1.27850029665664
O           1.05224721711590    1.59151865835769    2.83848054833066
H           0.91093796952401    2.09061239041380    2.00766586379580
H           1.49703897667435    2.18841131848764    3.43976420751230
O           0.54948418006681    2.61629947397297    0.34843134730016
H          -0.36044526407791    2.39901557000906    0.10539941586493
H           1.10685060496447    2.12887660945114   -0.27044100326339
N           0.08374959756027   -0.26774773343983    1.18029712166725
H          -0.72673890799435    0.35529085337926    1.00849259337398
H           0.80562748905341   -0.00816513353923    0.46605106686941
H           0.44947026704891   -0.09860568132095    2.12147361441017
H          -0.23709819484909   -1.25140896155751    0.93904845341667
