    23
        -45.37575851  Gyration_radius:  2.45910650436 Dipole_moment: 5.525
 S           1.04177301258533    0.07620401851594   -1.17712462098242
O           1.33658072395645   -0.58199652642522    0.10466244211469
O           2.21494519874880    0.51449352347935   -1.87299976734848
O           0.33213177432883   -1.06209075676448   -2.04495069138690
O          -0.00138742974063    1.08057703311487   -1.01277003021384
H          -1.48699859030223    0.32541244248877   -1.10264623090865
H           1.07504008760071   -1.67912337662991   -2.19187280106185
O          -2.20450340056963   -0.34017426944125   -0.99359525647175
H          -2.04268913970325   -0.97571925123883   -1.69570368633948
O           2.76002113126904   -2.08025284656267   -1.81180886333825
H           2.95264975735073   -1.15189357561072   -2.03290405224463
H           2.72606319351689   -2.09045830468548   -0.84963238254480
O          -1.07519962971203    1.14457175989322    2.91953543454480
H          -0.34422148976071    1.22935706415220    3.53429108188225
H          -0.91521007137310    1.83187659006371    2.22471840055436
O          -0.46290278385270    2.79226591833730    0.95246711496212
H          -0.19357117459103    2.19055539816279    0.22514274609587
H          -1.11218477713289    3.38526903934168    0.56980268770251
N          -0.93410639555941   -0.94463756391732    1.26912156371776
H          -1.60390637070686   -0.79265001838800    0.47001037176575
H           0.05035607523072   -0.83339588043304    0.84435346562250
H          -1.05880448129022   -0.17786101536380    1.98391227748154
H          -1.05387523025369   -1.86032941213018    1.68799078638427
