    23
        -45.35779770  Gyration_radius:  2.30976982912 Dipole_moment: 5.141
 S           0.39418327325183    0.38065558676879    2.06778485250841
O          -0.85845824748856    1.05855160720979    1.91469976215977
O           1.00974846161803    0.32779962535052    3.33937661387137
O           0.22340013771192   -1.09272156411803    1.55520364443534
O           1.42209619016688    0.96919176269670    1.05539107167364
H           0.97913101762203    1.23821028400634    0.19410541133993
H          -0.46186905639857   -1.16328223139528    0.81678025001977
O          -1.47167950281712   -1.36820284011920   -0.35712300186228
H          -2.18728039324471   -1.92981252028513   -0.05512876126833
O           2.54238248908132   -1.50341017483517    0.10318055841047
H           3.03002356398939   -0.71376064408412    0.35111197857551
H           1.85583369210393   -1.60555413716191    0.77855735847653
O           0.81289400853644   -0.98414540379515   -1.93071174731543
H          -0.00021965033708   -1.37610529315002   -1.58460240480134
H           1.52771967696118   -1.27452764477525   -1.32699263874381
O           0.52082079662589    1.51407645820773   -1.29411811529332
H           0.60301595479375    0.57578553076158   -1.64220411395126
H           1.20505377171834    2.02247808612551   -1.73369900785315
N          -2.31362578602964    1.07165868242222   -0.49127851800350
H          -3.26113996299418    1.40546561928033   -0.60762442269591
H          -1.99951423407643    1.29499370280603    0.45369000691407
H          -1.86305835754293   -0.42790728214319   -0.48044997323871
H          -1.70945781325269    1.58056278023210   -1.12594880334954
