    23
        -45.38062210  Gyration_radius:  2.25529603289 Dipole_moment: 4.337
 S           0.77874815717417    1.72587079263157   -0.09948108731758
O          -0.44018508677935    2.48064397601588    0.05609783426440
O           1.16317382830270    0.99576790270014    1.10097210015444
O           0.77551802774957    0.85306680073328   -1.27223967723163
O           1.92445096069861    2.78846267736941   -0.37364725001051
H           1.58396826079125    3.54968697268195    0.08361295229522
H          -0.50291848390848   -0.05615617318622   -1.61074839678351
O          -1.24220603974994   -0.70474999349033   -1.74932269546805
H          -1.42528337542711   -0.69960638835855   -2.68986091082664
O           2.27368288987116   -1.02078623357567   -0.19581158591145
H           2.21913666360664   -0.42712590300960    0.57389437651398
H           1.94833754372501   -0.43340711754162   -0.90391690253506
O          -0.75508615327337   -0.57009073031059    2.06944573205367
H          -1.52997695755608   -0.12159648575212    1.64975548110399
H          -0.01797119303757    0.06120938203181    1.93001185982020
O          -2.39542787246499    0.69837874161594    0.43871634297668
H          -1.81080800999650    1.47540640933854    0.33395030151168
H          -2.30962892334452    0.20258935074858   -0.38593390453150
N          -0.05307440693617   -2.20027790794283    0.20153692352028
H          -0.61404669995199   -1.88629075363451   -0.60912067014687
H           0.95353528091164   -1.89322370085966    0.03273209756507
H          -0.39260902862713   -1.61871516715514    1.06633580419242
H          -0.13132936179253   -3.19905644108438    0.35302126478547
