    23
        -45.36587918  Gyration_radius:  2.45779754711 Dipole_moment: 6.350
 S           1.77628008197472   -1.43157625693092   -0.67087993483284
O           0.38263679937529   -1.45665027112678   -1.13182312514290
O           2.73781134150480   -1.35330284578180   -1.71643591218699
O           1.93023318896317   -0.35654324752103    0.33817808736015
O           1.97217037018378   -2.78038916515906    0.12459813999887
H           1.21863362764968   -2.78088762140770    0.72234912035989
H           1.30929192378111    1.06913448847922    0.11068686744180
O           0.84091773956079    1.94101160785382   -0.02814379600957
H           1.52676560260104    2.60954688655906   -0.00130653827933
O          -1.23588902472511    0.79469324333725    1.61338105393411
H          -0.85538563838321   -0.08490454916781    1.79085411793008
H          -0.52531852726300    1.30836867835362    1.20479053101495
O          -3.03671808694121    0.77415063787461   -0.31237462969254
H          -3.62688219945406    1.51352146198923   -0.16101110769068
H          -2.47521637279043    0.69684124133844    0.50124592602164
O           0.32710538203612   -1.45038134005918    2.02003904465587
H           0.72357906511589   -1.47523917102769    2.89332628257904
H           0.96826480382752   -0.97637168708168    1.43272379664420
N          -0.80579594675486    0.70807939912817   -1.77375883915204
H          -0.33880720792960   -0.25142124105281   -1.54988667594008
H          -0.83109722936425    0.86058369476638   -2.77521047881675
H          -1.76630767406329    0.71460598412070   -1.34747250544214
H          -0.21627203959916    1.40713007225383   -1.28386942453949
