    23
        -45.37430940  Gyration_radius:  2.36018877502 Dipole_moment: 4.523
 S          -1.03931595123770   -1.37332869247065    1.13322923314246
O          -1.03805808045907   -1.59971232970643   -0.31606770682653
O           0.19479017728215   -1.73996021591866    1.77020542319455
O          -1.46738016452928   -0.01094471153337    1.44033980614365
O          -2.16434175221010   -2.33210029025840    1.71095259169824
H          -2.94066867117735   -2.10503537422822    1.20776493941857
H          -1.96853379193553    1.00042396315150   -0.19555252142281
O          -1.86068467821894    0.74979107520377   -1.12265819189159
H          -1.60634988092352   -0.19465680718460   -1.04194284785455
O           0.27379712223251    1.74793057588357   -2.27109959151091
H          -0.58459921523693    1.46340346719071   -1.85301575275092
H           0.25347594725554    1.39838009367388   -3.16317347445926
O           1.57860553503753   -1.80580878496420   -0.43424172574034
H           0.65947844030633   -1.87036158271573   -0.75830365134742
H           1.43547226986051   -1.96163624907955    0.52061518379379
O           0.62203086201252    1.49842710376406    1.78743603240625
H          -0.13522688120438    0.86088747048414    1.77093887967255
H           0.22939426653943    2.36754181544502    1.89098703447601
N           1.93319903417950    0.79138591901405   -0.42113959909325
H           1.36654436891867    1.19740474210734   -1.21188669527353
H           1.86658105647499   -0.28104044064283   -0.45898028434031
H           2.89988637412961    1.09409243151269   -0.46873275545934
H           1.49190360302064    1.10491681122482    0.48432568393768
