    23
        -45.38134540  Gyration_radius:  2.27238001449 Dipole_moment: 3.512
 S           0.49616054214899    0.12442052844715    1.68183439291712
O          -0.65522171627622   -0.72416318941802    1.95287286692206
O           1.47157868480934   -0.49780013211614    0.82027179610571
O           0.07000525538255    1.44075297899051    1.20655545873050
O           1.21258046442968    0.37006070910399    3.07149967539698
H           0.51132156945505    0.72186943951224    3.61022352220944
H          -1.33176630118833    1.05193487544458    0.41767713284573
O          -2.09606307992762    0.59513848451348   -0.00186707195985
H          -2.38759688561326   -0.01333947205703    0.68525629582863
O          -0.12557398946208   -2.67352650335442    0.28269271758958
H           0.83352730912059   -2.58670721166681    0.30879374439386
H          -0.42436835476590   -2.06711254659130    0.99911952458074
O           1.53868609852699    0.15532347278778   -1.76837695405203
H           1.40705463815232    1.12318107342721   -1.71745064853032
H           1.74416599258229   -0.10291612038740   -0.84660090005578
O           0.83329789810751    2.64801565883573   -1.04911735872950
H           0.06646783595235    3.17055747362978   -1.28932078480139
H           0.64810024000844    2.29221554898452   -0.15638271488721
N          -0.78212837438440   -1.01382249606574   -1.67298473746602
H          -1.40023968071231   -0.33869406138882   -1.14900588216815
H          -1.21774220296592   -1.34322026430574   -2.52671498187294
H           0.16146027698395   -0.52388527359639   -1.85850857200877
H          -0.57370622035415   -1.80828296274042   -1.00046651099251
