    23
        -45.36613900  Gyration_radius:  2.48318022891 Dipole_moment: 7.581
 S           1.78079016341450    1.63703722971448   -0.40660788329053
O           2.50526165397257    0.37654226491896   -0.26478251666949
O           2.52873119292394    2.81342594029726   -0.11539771167522
O           1.43759951838192    1.72539619110717   -1.99706848598648
O           0.45748637369680    1.53982085863189    0.20692994148019
H          -0.43739609412916    0.81559623090815   -0.84689930884761
H           2.11114286429829    2.33637169534467   -2.27614474018107
O          -0.91742196038213    0.24279534767245   -1.51264492437843
H          -0.70970809819080    0.64065228148329   -2.36079515216969
O          -0.15383610383229   -2.19501388898812    1.86707032686557
H          -1.01466774777865   -2.61845756904252    1.87402795750535
H          -0.32154851524399   -1.25600189295781    2.16635506887840
O          -0.84018090422915    0.28724633095036    2.24461563336949
H          -0.28006708262895    0.84140782430781    1.67487852763569
H          -1.67414809135406    0.18458829670235    1.75192284425492
O          -2.87204559410012   -0.17329568379415    0.41615238396473
H          -3.52805611567507    0.52345053922042    0.36318539836282
H          -2.29495144602987   -0.06908229790258   -0.35781199673527
N           0.84156782137154   -1.55746288317347   -0.49714527630513
H           0.07052724478421   -1.08805870760151   -1.01240970564533
H           1.23014401880811   -2.33312289096565   -1.02216924077374
H           1.59603245318918   -0.79287916101433   -0.34628945803588
H           0.48474443873330   -1.88095606582457    0.45102828838238
