    23
        -45.37859011  Gyration_radius:  2.3347989285 Dipole_moment: 3.201
 S          -0.75393023960796    1.31668818752704   -1.21775657086333
O           0.47585257889218    2.03102909052974   -0.95780190453794
O          -1.65308399473095    1.25277060307920   -0.07575226027093
O          -1.51542294843293    2.14281114640611   -2.33703378613269
O          -0.51444428221655   -0.01375215887490   -1.78122774411114
H          -0.62797990159677    1.52742260211222    1.40276060027012
H          -2.38064009989799    1.74642802408158   -2.37956185683692
O           0.30013742831445    1.69661189704810    1.64532001671014
H           0.62538398485090    2.11822016558594    0.82772700910398
O          -0.21692341561933   -2.57425755909725    1.38706824576240
H          -0.97337879982591   -2.16792452693959    0.88100744944511
H          -0.02996448696068   -3.40543541142636    0.94798026290689
O          -2.01077719441977   -1.40882982877912   -0.12352112298784
H          -2.27242772119131   -0.56004936048537    0.26064390433940
H          -1.46559908174774   -1.12251346743187   -0.88381297405913
O           2.03778164842689   -0.15116969919287   -1.24322867301708
H           1.12959792781099   -0.30174615855585   -1.58955049706509
H           2.10051759694232    0.81300693546272   -1.27575143610910
N           1.56504250175064   -0.59857340816269    1.31842875915596
H           1.85342609728616   -0.49278865630084    0.29739761115384
H           1.05575513417651    0.30137310249622    1.58024690598489
H           0.89755728862451   -1.41227983704006    1.40136571465660
H           2.37351996910784   -0.73704168193258    1.91505234651540
