    23
        -45.37898649  Gyration_radius:  2.35103755203 Dipole_moment: 4.132
 S          -1.16615053972278   -0.62914771528912    0.84701164840733
O          -1.70129675662620   -0.42403197921785   -0.49432942906203
O          -0.11509148171053   -1.63318178447531    0.86637296031759
O          -0.71498525169556    0.64223910473338    1.41813671186891
O          -2.31818374574678   -1.17097791645762    1.75378115484904
H          -2.98745261279456   -0.46372910396058    1.68695270773898
H           0.36491908166588    1.37343036883976    0.52738321255696
O           1.04790004785174    1.81333404993549   -0.05194614566735
H           1.07271630024777    2.73216165365916    0.22070800147446
O           2.98014132383302   -0.00482165542169    0.46815773971340
H           2.40919809894044    0.76649802023285    0.26821750472865
H           2.68644262742777   -0.32565959736238    1.32448603267470
O           0.12396108545120    0.35684781610611   -2.22972693367874
H           0.48680446029551    1.09423073899248   -1.71389863501667
H          -0.68033039315992    0.08313287034259   -1.73195710113007
O          -3.35549764287923    1.14321256276282    0.97951706177108
H          -2.50715142309078    1.45932402946210    1.32008079828276
H          -3.14904224223825    0.79375765554250    0.10107036012791
N           1.52748622984429   -1.55248624096066   -1.13951944768001
H           0.82514207359365   -1.75107975769024   -0.36337613335003
H           1.81321827745137   -2.39382051431225   -1.62623175455043
H           1.03600730215025   -0.84373756296015   -1.77366665748780
H           2.32124519097603   -1.06549502248563   -0.65722366689568
