    23
        -45.37594973  Gyration_radius:  2.27229912831 Dipole_moment: 2.875
 S          -0.53493271329846   -1.25209610629768   -1.00149395478340
O           0.65536278427348   -1.85177977235386   -0.40219298915363
O          -1.60853352550498   -1.04686133717832   -0.06578733561016
O          -0.17921667655820   -0.03876499923879   -1.73322983088360
O          -1.04493481537761   -2.29372661966028   -2.07521519339780
H          -0.24366220668856   -2.52927352801784   -2.53203376335237
H          -0.85738500120314    1.42208345818051   -1.25302578365791
O          -1.11660510574749    2.28802796499895   -0.86643364640571
H          -1.99107585322987    2.48041633601869   -1.20727080651502
O          -1.00667747651987    1.00314805385957    1.51993221733036
H          -1.40428433470322    0.21509172420660    1.09755112808578
H          -1.09073988356865    1.69952033899969    0.84109073244522
O           1.78052837202452    1.70137905991986   -1.05771507603648
H           1.21836119098501    2.48130560052253   -1.00624494136106
H           1.22674409594253    1.03172266327502   -1.50398264924578
O          -0.05817851901932   -2.07749070509088    2.24757410388381
H          -1.00198794528551   -1.90598238863093    2.26006811771992
H           0.15650790322223   -2.25638062481263    1.32168975307002
N           1.44933552780735    0.19130735494256    1.10378504971567
H           0.49449853572783    0.53589614459696    1.45221081320107
H           1.26361101388907   -0.70114099495357    0.58219244806500
H           1.81057162786842    0.88223962127428    0.40035676171509
H           2.08269298455952    0.02135875538405    1.87817484520937
