    23
        -45.37652889  Gyration_radius:  2.26390672703 Dipole_moment: 2.728
 S           1.88000022031313    0.32880444172455   -0.17042620980298
O           1.50944892104788   -1.02476905544766    0.18490196026914
O           2.92176715029930    0.89869620191254    0.62856201433514
O           2.44560640134664    0.25830900720430   -1.67884423875650
O           0.68762358737814    1.18341640769631   -0.28584866089503
H           0.02544786725798    0.31381144661746   -1.55858699094063
H           3.35168061838949    0.53808088922148   -1.58949880282741
O          -0.46640427794470   -0.20296746546587   -2.23119566215639
H           0.18770658441294   -0.42390519048078   -2.89637494054180
O          -0.78401634366513   -2.14692588844730   -0.35691449601929
H           0.15170578874457   -1.94766883066779   -0.12227121060103
H          -0.90388611689025   -1.64201756534278   -1.18351293078840
O          -2.01330699368305    1.49147559792676   -0.38767393809784
H          -2.09814468485536    1.08304631966403   -1.25609447192313
H          -1.06473639078114    1.69369244914691   -0.30944037929601
O           0.55030975907590    0.64561438912013    2.34373265734819
H           0.70333956691153    1.05283772808493    1.47410076362150
H           1.37583025929315    0.19717601358375    2.54336914653485
N          -1.71669809340256   -0.46823383940793    1.39623598850014
H          -2.01401402493769    0.33262162286940    0.77716622777133
H          -1.40943190644078   -1.26468248324023    0.73138353144549
H          -0.86681996988741   -0.14296518481878    1.91546364836870
H          -2.45300793197489   -0.75344703144194    2.03176700445242
