    23
        -45.37882882  Gyration_radius:  2.32784686181 Dipole_moment: 3.295
 S          -0.15925490985072    0.86245361832978   -1.68871384473826
O          -1.47505268332254    0.95971478090949   -1.07981629583099
O           0.91005345694136    1.34299960632764   -0.83063796463046
O           0.10311151699311   -0.47407781313438   -2.20970552523650
O          -0.16570870496916    1.84101168743875   -2.93771468264340
H          -0.90821288752998    1.55318406160544   -3.46032746768955
H          -0.95396424558564   -1.48869255716839   -1.31723127249973
O          -1.54998435322659   -1.64563730333677   -0.55436516692661
H          -1.98341845717807   -0.78072960874368   -0.47957259858675
O           2.16351204004359   -0.92973034598495   -0.53134359981716
H           1.74333740637051   -1.22045021291851   -1.35397761261729
H           1.95166297252998    0.02838502704114   -0.53624901504822
O          -0.03110045042300    0.35006134632357    2.89615121125263
H           0.69524246502607    0.73148156517367    3.39173704589971
H          -0.34500075544455    1.07364092673856    2.28465096048963
O          -0.62951064791796    2.19461549448001    1.14005989647447
H          -1.34631399389275    1.90158668118536    0.55717281923311
H           0.14244418191712    2.11736917671901    0.54943424631568
N           0.37286942046901   -1.70081705451644    1.25175846570148
H          -0.48249749598397   -1.75477231833677    0.61798080447519
H           1.19037310400478   -1.44986117405160    0.61546743304721
H           0.22792666550541   -0.92548962968063    1.95440929874405
H           0.52948634551573   -2.58624594441199    1.72083284466052
