    23
        -45.37545160  Gyration_radius:  2.39571446469 Dipole_moment: 4.172
 S           0.96278786673906   -1.77775186456830    0.54970582643900
O           0.48597757150959   -1.58937200341959    1.91797240363141
O          -0.06227347949489   -1.49926988968502   -0.43390493405418
O           2.19329756624172   -1.03975879982635    0.31605606476588
O           1.31785829262267   -3.31297240885005    0.40628460127993
H           2.00772178933482   -3.43700486824689    1.05111788255669
H           1.90950834966190    0.51683458653067    0.35850291935775
O           1.63136427906158    1.47364608949511    0.39129532034613
H           2.42135775599327    1.97139844443871    0.60764631590742
O           0.53227321524806    0.56561514180340   -2.07152105353407
H           1.03347536641450    1.09711802354083   -1.44013872053752
H           0.37708477364400   -0.28352037844378   -1.61609851686777
O          -2.34141028026094   -0.07927738956819   -0.05938663420644
H          -1.71717244350870   -0.78796480660844   -0.30120703150938
H          -2.32995195150908    0.55118186303356   -0.81861868056551
O          -1.92965390893941    1.54239028979920   -2.12885161791714
H          -2.33164365062355    1.31243001547599   -2.96747867424726
H          -0.98366893044821    1.25821014934798   -2.19278088482836
N          -0.64182814551484    0.73554998004829    1.70843904569302
H           0.10989139862510    1.26893794070836    1.23516981909881
H          -0.22266491379126   -0.21698567771047    1.94227149001995
H          -0.97737120572107    1.21427019995067    2.53697755659765
H          -1.44495931528853    0.51629536275682    1.00854749257149
