    23
        -45.37814018  Gyration_radius:  2.2715233567 Dipole_moment: 5.398
 S           0.17640081965120    1.13344732149663    1.05428150015874
O          -1.12902924479956    0.65293962026017    0.61484404056784
O           0.80350333984042    0.20790607725618    1.98316539365373
O           1.02645445890107    1.39235404192996   -0.11240728387909
O          -0.02710317007535    2.47944406649087    1.81138257782978
H          -0.40893264773526    3.05703366632915    1.11990694719793
H           1.57322331031128    0.08516675636643   -0.85496988929362
O           1.82978990036013   -0.77623125701992   -1.28204865931914
H           2.72328271354259   -0.65161759197986   -1.60572090489048
O          -1.82147052258682   -1.97180448059097    0.26503167195527
H          -1.89467261095035   -1.08920799453192    0.66871960315173
H          -1.79278984423608   -1.76937683939971   -0.68964141015264
O          -0.99909292911367   -0.50488260926036   -1.85148518987564
H          -1.04046094990545    0.07502374167040   -1.06997753822668
H          -0.06207338847562   -0.62189713695322   -2.04008652643280
O          -0.86455968824423    3.23767664265295   -0.57737880760996
H          -0.07780900399615    2.69945253680158   -0.76592590934713
H          -1.61728668416377    2.64782429997838   -0.68069735954466
N           0.73559918068682   -2.09439785778165    0.80620832549914
H           1.24094301934620   -1.84927664377620   -0.06927376585445
H          -0.31101003316979   -2.21179600130335    0.59398373176431
H           1.13229323336241   -2.90824250244027    1.26294006094076
H           0.80480074145618   -1.21953787618404    1.41914940170311
