    23
        -45.38069799  Gyration_radius:  2.31484430729 Dipole_moment: 0.632
 S           0.47612208639049    1.70497349777299   -0.77413345879168
O           0.92848779852979    1.73674757006324    0.60891730093431
O           1.45954882225922    1.13210664520780   -1.66589928226353
O          -0.83752512468671    1.08750099893456   -0.90030162158122
O           0.27187038782304    3.21197460387342   -1.22031236614176
H           1.16886643518122    3.52720190296185   -1.25697255313600
H          -0.90555156987784   -0.52206042200178   -1.21538643773535
O          -0.92952836150459   -1.50353116851331   -1.31982687574327
H          -1.48812587023210   -1.67618374882402   -2.07897225289654
O           1.82771277808254   -1.42163674317706   -1.07070067459044
H           0.94597174478215   -1.74314795956230   -1.31885335917099
H           1.85260611486708   -0.49820503180495   -1.40490830190437
O          -1.20368749745870   -1.70855114502960    1.43952388459226
H          -1.68800125928683   -0.87015844357524    1.57951918688283
H          -1.24538947186227   -1.86873432760639    0.48200719607538
O          -2.14715670493094    0.80790991450210    1.39453400762260
H          -2.99894573673678    1.23428535934466    1.29298365600333
H          -1.63672985626239    1.01644103616435    0.58426794165490
N           1.24550166885110   -0.73731010727206    1.39839928466759
H           1.62731160250373   -1.13234319633192    0.48644320959619
H           1.12115107929772    0.29825561582924    1.22104115743059
H           0.28547352938661   -1.17301279434523    1.55924574036312
H           1.87001740497253   -0.90252206659960    2.17938462820968
