    23
        -45.36629799  Gyration_radius:  2.32665013087 Dipole_moment: 6.271
 S          -1.70388899435888    0.18633935173278   -1.10256451894386
O          -2.55248975382381   -0.43212507290158   -0.08123609553388
O          -2.34551051762148    0.53275649207206   -2.32366006500492
O          -0.91096017616615    1.28100923259364   -0.51238758201128
O          -0.62222286443320   -0.96303375163166   -1.38608539268952
H           0.23674940953191   -0.54624054391378   -1.57612552779958
H          -0.55197292735397    1.47844640592618    1.02304227260353
O          -0.29795918080435    1.48401086713724    1.98656563026260
H          -0.94716702067995    2.03944082693236    2.42053138392263
O           1.53668624059314    2.23070832598234   -0.62353411243836
H           1.67317029829665    2.37480775292213    0.31625513620119
H           0.57498142712539    2.05596860132759   -0.71947436734524
O           1.22670948329368   -2.28141944051590    0.23028641655144
H           1.69799289252053   -1.56557433087863   -0.22652490815377
H           0.70652722695044   -2.70803491449823   -0.45747831354935
O           1.97318651403008   -0.20616564116411   -1.47936242878439
H           2.41119845410360   -0.16217789663725   -2.33060472585930
H           1.92614814781423    0.72759560100462   -1.14279307986677
N          -0.79786020073318   -1.12476048555722    1.61918935486477
H          -1.59142092861531   -0.90091833498507    0.88822558241622
H          -0.49902216641289   -0.19479614332946    1.98941112660210
H          -1.14940082678388   -1.72087430222931    2.36100477900549
H           0.00652546354422   -1.58496258936761    1.12731945556292
