    23
        -45.35545895  Gyration_radius:  2.42383760629 Dipole_moment: 5.688
 S          -1.04338885022024    1.13748919883095    1.95740175554944
O          -1.44292180522872    1.97001501199286    0.85299287320223
O          -1.09932660721043    1.68277196867672    3.26026068219660
O          -1.85971961959521   -0.18028359023264    1.92772232584466
O           0.40906172077578    0.62723562699884    1.64707808314037
H           0.71065852085107    1.00564070809434    0.77254144642301
H          -1.76716878956259   -0.59527568031943    1.02371710478000
O          -1.46498947683845   -1.35616052413429   -0.34996544882375
H          -2.00298894127123   -2.14784341913274   -0.40186217585977
O           2.48598659356446   -0.56078376958557   -1.70684778593020
H           2.24978943567667   -0.52541691219396   -2.63537533230353
H           2.19244048016497    0.27777393678156   -1.31921147726929
O          -1.23496162052937    1.07415219871774   -1.64424826271729
H          -1.38960792873726    0.13752854489973   -1.44746028977306
H          -1.58907604632863    1.54865629616347   -0.86873764351054
O           1.10211551423770    1.62081583771202   -0.65932062923889
H           0.25290787396196    1.41677349956128   -1.15649808015851
H           1.10929530225384    2.57211331668865   -0.53480167474353
N           0.95965439240952   -2.00246530365712    0.27716333142167
H          -0.50169869971688   -1.66030089594612   -0.14951428867233
H           1.11112831760733   -1.42318618210184    1.09626881552325
H           1.21863316127408   -2.95310874225097    0.50718286153316
H           1.59417707235107   -1.66614113551629   -0.44848618060360
