    23
        -45.36948863  Gyration_radius:  2.2893849462 Dipole_moment: 6.846
 S          -1.10620158203783    1.17679190557654    1.44531731709389
O          -0.13587446968383    2.23693644131807    1.33626978821318
O          -2.22791443337827    1.40740958270130    2.29519823379134
O          -1.76865875562554    1.05546934504850   -0.05760415055869
O          -0.46628068118539   -0.13442055531719    1.60720468281602
H           1.04957879816314   -0.46702891716782    1.25462598352150
H          -2.40177635657611    1.75318790887187    0.06770982468143
O           1.93595783947189   -0.79042271893547    0.93393468495029
H           2.35187232854508   -1.20568701480411    1.69050541551671
O          -1.70175033551538   -1.87882018388749    0.13766877466820
H          -1.31872628161784   -1.27663704778284    0.82411762479045
H          -2.43759158322546   -1.38984944854994   -0.23680542706612
O           1.81383257354782    1.73222370438946   -0.36695801263589
H           1.14501273730332    2.05702316264126    0.27769437287241
H           2.22146340467716    0.97077377965920    0.06374636128274
O           0.12529186114815    0.74076626119668   -2.08539876657187
H          -0.67109762788648    0.94571396061714   -1.57300805485690
H           0.85137974742414    1.21715074474068   -1.59370054703606
N           0.56243528030398   -1.66202840784266   -1.22239843578092
H           0.87385325260432   -2.37843937849121   -1.86784885040711
H          -0.36013399367323   -1.90691449622032   -0.76427615475795
H           1.25122629042280   -1.50079424176038   -0.45737840335865
H           0.41410197679612   -0.70240438600648   -1.70861630116279
