    23
        -45.36384246  Gyration_radius:  2.60317338588 Dipole_moment: 6.405
 S           2.15994694734486    0.94863097517629   -0.88389008097689
O           2.28671595047943   -0.35714714112568   -0.23828503924410
O           3.35711851906710    1.71854152759494   -0.95476961218067
O           1.79187793557403    0.58262734893751   -2.43223157000486
O           0.96679817455809    1.64536991802033   -0.41620310357109
H          -0.27364830197547    1.13940960407685   -1.29103037896831
H           2.61510413144398    0.81015931051723   -2.85092608758440
O          -1.01228445806439    0.67062872948584   -1.76296854483628
H          -0.78958741774472    0.74074779936800   -2.69315752988085
O          -0.88992683037639   -2.31186211977646    1.74138847132550
H          -0.15540238089013   -2.60273262498317    2.28552727725549
H          -1.23536307488847   -1.49832348559701    2.18494459632250
O          -1.63949063673664   -0.06188592190127    2.89506205060114
H          -2.50773546100996    0.10850686401341    3.26226120262091
H          -1.46146554812329    0.67126841705332    2.26042726729200
O          -1.31370223183880    1.82083875999477    1.03940392431025
H          -1.81656781048917    1.62475921406749    0.24349659026336
H          -0.39262997745243    1.89740762891825    0.73826770367102
N           0.04672846628797   -1.52743707534824   -0.63330446185260
H          -0.53492429561786   -0.78257688991756   -1.08485765791390
H           1.01357311263659   -1.07567901476857   -0.43349114885284
H          -0.37521639539484   -1.84217721129410    0.28177530162755
H           0.16008158322318   -2.31907463251868   -1.25743916942866
