    23
        -45.38062414  Gyration_radius:  2.25465740671 Dipole_moment: 4.376
 S           0.08633872269518    1.18126991747331   -1.47910230625985
O           0.88286056912270    0.33769726013512   -2.33496236690765
O           0.81686978006543    1.66498152642170   -0.31263611164974
O          -0.29121207704371    2.46172860678778   -2.33569192162081
O          -1.19142203887976    0.58681655128027   -1.09813317999727
H          -1.26759956268201   -0.93880733869862   -0.61126886052422
H           0.49412593247413    2.57587427249325   -2.86012638833795
O          -1.29377503245354   -1.84211023185845   -0.19869054129462
H          -2.05516800569428   -2.28384956804497   -0.57727564188842
O           1.96787846926716   -0.26791776478097    1.11161451582848
H           1.99597432055495   -0.96389902482476    0.40955603781020
H           1.74578266604881    0.55008195078380    0.61979478026400
O          -1.26983515888626    1.72531716062841    1.28249067201673
H          -1.69565679757830    1.41584439043160    0.46433231685460
H          -0.40195539519115    2.01447231727823    0.93922755042618
O           1.45372435788930   -1.86041429500482   -0.92665494860057
H           0.55333209088722   -2.16014390551806   -0.74533057231575
H           1.35728275882723   -1.12945805413348   -1.56935108999715
N          -0.39333384423271   -0.63269647268950    2.07802901846249
H          -0.82687114969362   -1.28520768320062    1.40248021058510
H           0.65804490460095   -0.52776877796040    1.78754590383277
H          -0.82594861517320    0.32873017558265    1.91991499653724
H          -0.49943689492226   -0.95054102259310    3.03423793678268
