    23
        -45.35716565  Gyration_radius:  2.40479776869 Dipole_moment: 5.858
 S           0.84750476479090    0.53162893822573    1.47958814723328
O           1.33515868633941    0.37394917759492    0.12825464959149
O           0.72035770152926    1.86426123086382    1.95585992186563
O          -0.53327814288805   -0.18827706067957    1.56767690017567
O           1.70694639455338   -0.30422214122923    2.43494575210065
H           1.99598992889810   -1.11468553064429    1.89061278131056
H          -0.94703622057723   -0.32162962776664    0.65805472686532
O          -1.70087114259929   -0.66808380013106   -0.66869144110301
H          -2.64256731700087   -0.65349044077053   -0.48418815947781
O          -0.35696155008808   -2.90752406307030    0.42909719204530
H          -0.76379933988613   -2.29361538416994   -0.19905555977554
H          -0.70925080711699   -2.67571178134353    1.29226075652924
O           0.50891025157076    2.82918623472113   -0.66249047941666
H           0.40754994522383    3.12281464533771    0.24896007664417
H           1.01286216727271    2.00484628917219   -0.58147131960437
O           2.20647247234703   -2.10389563360881    0.71600912375138
H           2.19167780054068   -1.39028224546274    0.06189999209107
H           1.36465165067822   -2.59227235032907    0.58805761398195
N          -1.35054133481977    1.36845486567670   -2.24027424718601
H          -2.17536892899989    1.87854968240118   -2.53144660800578
H          -0.82913184334888    1.12148530668855   -3.07216675462030
H          -0.76146961355703    2.00737315370833   -1.69685984584518
H          -1.52780552286517    0.11114051482019   -1.31463319914771
