    23
        -45.36313025  Gyration_radius:  2.42052550889 Dipole_moment: 7.762
 S          -2.24636822314478   -0.12263961136159   -0.55415862761496
O          -1.72972500227339    1.17208020914909   -0.08064801267751
O          -3.65404903724453   -0.18110866162314   -0.72901732322133
O          -1.54784729723444   -0.31853537379140   -1.99673331566605
O          -1.67740950706601   -1.21304096924987    0.25117780265123
H          -0.86354972131489   -0.52114111363383    1.48242317718625
H          -1.01232160606912    0.46373558685106   -2.15420897518376
O          -0.30478503814021    0.15735952865867    1.94229114753703
H          -0.79578710115262    0.97046759122925    1.76755187225300
O           0.17601580139397    1.88708536393717   -1.58058541632418
H          -0.57500056171857    1.73298192888637   -0.93172991436657
H           0.11102099149340    2.80182071215810   -1.85723926662247
O           0.35379741929783   -2.15690867995766   -1.07382141130855
H           0.04806289697363   -2.10294043280001   -1.98299363387301
H          -0.45622275326260   -1.97112215241001   -0.53409000406606
O           2.53291770527009   -0.11593383879521    2.45365750452341
H           1.58448231757371   -0.06888329352607    2.63558563314039
H           2.94355378366449   -0.47895118140099    3.23902510779555
N           1.45245350039293    0.02231561277314   -0.07742408967918
H           2.39195940146327   -0.00892723992069    0.31654062079339
H           1.30461038064844    0.80804876144844   -0.72951259435012
H           1.18062136502390   -0.89280684472514   -0.54489119425287
H           0.78357031542908    0.13704408810843    0.73880092333394
