    23
        -45.35094053  Gyration_radius:  2.37621081153 Dipole_moment: 8.138
 S          -0.09296395255931   -1.70736139952639    1.58809169288393
O           0.37223642241776   -0.34510488222854    1.55456809947107
O          -0.57017811354301   -2.20285957568241    2.82362686834000
O          -1.18689179077297   -1.85006659824463    0.46838238797855
O           1.01481437079008   -2.63833095996250    1.04401879306928
H           1.17336717600202   -2.33902940147521    0.11098363896504
H          -1.51514970252407   -0.95691264537114    0.18687175431339
O           0.29163586530082    0.71845284781419   -1.90099837581954
H           0.48845120217855    1.19318380238823   -2.70968891096468
O          -0.99957216183475    2.09904671149577    1.54460542467128
H          -0.52371706825886    1.29981711100422    1.81225768340740
H          -1.66587230842895    1.78609295473455    0.92577147548794
O          -2.01142639196621    0.39964148916004   -0.58781685917163
H          -2.70503486532189    0.18774828349262   -1.21557226653763
H          -1.19533911233051    0.59211906555960   -1.10544324158969
O           1.02840373080538   -1.84735755473563   -1.43700367659129
H           0.25730837354783   -2.34568654755609   -1.71785807934571
H           0.82053296339072   -0.90190109268832   -1.59527002027977
N           1.49143312401575    1.84788665505815    0.07745387413705
H           1.50987077410531    1.03994660821885    0.69637046963031
H           0.80939598075130    2.48169694511878    0.48926939715894
H           2.40097994669646    2.29061199887132    0.09413980634917
H           0.80771555758622    1.19836617461199   -1.14675991555648
