    23
        -45.37067473  Gyration_radius:  2.37794902824 Dipole_moment: 8.513
 S           0.85477116076626    0.21005305042731   -1.60144899048581
O           1.64978863010694    0.32189187785477   -0.36988663533839
O           0.96853080127491    1.33415613815935   -2.47289851898100
O           1.38114740335938   -1.06142479067500   -2.34841482207186
O          -0.54974793349502   -0.09377380132237   -1.23312007157329
H          -0.94465796752589   -1.10033157424174   -0.16559444970420
H           1.37439805793285   -1.77451523820114   -1.67611707851920
O          -1.14363950768716   -1.74923533829911    0.58512959329745
H          -2.06960863118761   -1.97767885095489    0.49113320874427
O           1.02029522981795   -3.01073184459340   -0.53851334825398
H           0.72921736827143   -3.77149781272083   -1.04555911836176
H           0.24787337125414   -2.68611802290980   -0.03974433775461
O          -0.90374693564874    2.49844557995204   -0.81653401967025
H          -0.18000426118986    2.75830294237799   -1.39830834176648
H          -0.98589093367040    1.54315303164517   -0.99989008783126
O          -0.85736595584689    2.50127947507587    1.81183215727450
H          -1.77244195904339    2.66527167171623    2.04515580706471
H          -0.80874921005322    2.62266948263287    0.82796138086061
N           0.39156295640333    0.14607487212642    1.82676891640754
H          -0.26839507986906   -0.63033919765478    1.66763217056644
H           0.97858095073954    0.23350840162570    0.89767032309754
H          -0.11942894496578    1.05829185032815    1.94225246150006
H           1.00751140012607   -0.03745192235836    2.61049380146030
