    23
        -45.35659665  Gyration_radius:  2.40412841723 Dipole_moment: 6.701
 S           0.33815260288144    0.56627866012203   -2.43259312221794
O          -0.14322758346963   -0.78384247089755   -2.54698002780194
O           0.17853688127636    1.43331295328027   -3.53666056284476
O          -0.33295973136458    1.19790830487260   -1.16043234194415
O           1.83252163363195    0.54544732570598   -2.01756969651159
H           1.92790374468463   -0.03315212752505   -1.21249768839104
H          -0.94243002216588    0.54614517053714   -0.69912459858974
O          -1.92338319239181   -0.31531746539578    0.20768490293415
H          -2.82575557595073   -0.07366552231596   -0.00625372109806
O          -0.12972370215233   -2.33539587776956   -0.40846236578062
H          -0.16553624617519   -1.99846421415512   -1.32731838566679
H          -0.88361736559884   -1.90700859939505    0.02019755891971
O           1.98398922831671   -0.94849574737052    0.11144377179686
H           2.75331144824492   -1.52057175220182    0.09250056450128
H           1.18098579826379   -1.54715482759311    0.00322293722413
O           1.13600293051919    1.48070301429071    1.28238763729731
H           1.59937329897432    0.65989299132672    1.06830411522630
H           0.75508679034160    1.78213211078478    0.44923126209585
N          -1.28049349446413    0.67961502348919    2.53298617069004
H          -1.14067428255553    0.02010407369017    3.28763291186831
H          -0.36223960959961    1.05004744466560    2.26547846329969
H          -1.72403545107957    0.05172694494436    1.13744544354980
H          -1.83178812018051    1.44975459692832    2.88937677145691
