    23
        -45.36391820  Gyration_radius:  2.43709670616 Dipole_moment: 4.508
 S           1.89816111828007    0.21892848507612   -1.22713599047684
O           0.92648250505281    1.27145652734920   -1.44672046770625
O           3.04739681075121    0.21835738097686   -2.07351659028377
O           2.49886046848537    0.51619891000894    0.27051091656779
O           1.23499908298369   -1.07811104277940   -1.06710721416513
H          -0.33723667030892   -1.25655907221518   -1.52077716776678
H           3.40562928374358    0.66741503630927    0.02671822679930
O          -1.30684019680382   -1.36745421504615   -1.67319289406744
H          -1.41044165202124   -1.49032097701446   -2.61735798937224
O           0.01510625260653   -2.51614104084948    0.81127850557368
H          -0.79021345635557   -2.70167752176836    0.31770535960894
H           0.66172731745057   -2.23882176397497    0.13216171127224
O          -1.79234246145136    2.00038581239249    2.16303121031816
H          -1.94324627745360    1.92523380022395    1.21034467715911
H          -2.28160457683559    2.76918175036046    2.45722337673439
O          -1.49354048188202    1.07432798020395   -0.54676339514385
H          -1.74558719264098    0.24610350465793   -0.99931285020895
H          -0.65597836684588    1.34296343347515   -0.99914847113098
N           0.02367593337463    0.07610122792900    1.38353753148176
H          -0.62776109903274    0.45959537714391    0.62815405634005
H          -0.26662586044337    0.50083952076883    2.26454667860202
H          -0.04457880790255   -0.97715030933808    1.37596113181098
H           0.98395832733087    0.33914718601976    1.12985964805376
