    23
        -45.37859073  Gyration_radius:  2.33468379192 Dipole_moment: 3.193
 S          -0.81454658076120   -0.65772353738700    1.63916787945707
O          -1.59274652779776   -1.21275022583244    0.54198608910627
O           0.61280310646056   -0.94094397497503    1.47573959860580
O          -1.06926007775713    0.74308103585722    1.89042710222445
O          -1.27613171406482   -1.43168395712998    2.94438107310220
H          -1.27159535552161   -2.35011383087555    2.69132035585464
H           0.66454928398271    1.84133888723561    1.70116524967139
O           1.41547713037125    1.52702271111038    1.18002470129333
H           1.35947703098067    0.55476079723040    1.31838337730004
O          -2.00875360579845    1.16385051485270   -0.53024214553631
H          -1.87580646844874    1.36941539475182    0.41416654533629
H          -2.09794127401812    0.19449196665699   -0.49188459990209
O           0.48193480061837   -2.27916496597284   -0.78805867571205
H          -0.47879099575788   -2.18966073104455   -0.71324818974345
H           0.78320270982438   -1.89389428025779    0.05921821860685
O           1.41967821270431   -0.54032055772663   -2.50687561390926
H           2.36341352234300   -0.70569370879817   -2.53171767994825
H           1.03599750418015   -1.26266659554406   -1.93715434128075
N           0.47736278823656    1.63025980893640   -1.28897169563652
H           0.62105823968329    2.49646822250203   -1.79668816543040
H          -0.56150681914271    1.46983153325431   -1.10742261271144
H           0.86539141528068    0.81186526914342   -1.83147231310316
H           0.94673365442039    1.66223020400683   -0.33224412763400
