    23
        -45.38497721  Gyration_radius:  2.25795438695 Dipole_moment: 2.525
 S          -1.75678086855891    0.61180493949738    0.17632225143525
O          -0.89527512970350    0.89030061307460    1.32411487541206
O          -1.12141632032589    0.94487282580342   -1.08118114487325
O          -2.29027871317810   -0.73623211540980    0.22456026994382
O          -2.99743905999427    1.58686386440828    0.31202880150617
H          -3.46375910495702    1.20986510838761    1.05050751026570
H           0.59510128616673   -1.69811514664511    1.19464139548793
O           0.98781528066760   -0.95939807614704    1.68986967614824
H           0.27088747372410   -0.29278477305054    1.74848951112318
O          -0.41560161702798   -2.48302714174166   -0.12037004765866
H          -1.17147242361737   -1.84906130962525    0.00209813012285
H          -0.80643294963323   -3.35806107898703   -0.13991816681142
O           0.67519931798113   -0.80012835947733   -1.99578321572796
H          -0.04387489860756   -0.14732918778979   -1.86683189981800
H           0.37325659542339   -1.58619601998659   -1.50879853904984
O           0.73242699712352    2.50491319076385    0.03707940121048
H           0.15821389988802    2.36183021881594   -0.73042418781383
H           0.20132236482542    2.10606609503145    0.75621162999173
N           2.23628085524186    0.34282178063248   -0.21906517203628
H           1.76751527799105   -0.12936963648913   -1.05193172959193
H           1.80324641432595    1.30833283682406   -0.13203026940610
H           1.91615798887921   -0.20703084241227    0.63587311307119
H           3.24490734316689    0.37906223418128   -0.30546217292505
