    23
        -45.37366221  Gyration_radius:  2.39555163151 Dipole_moment: 4.336
 S           0.52984637402376    2.05349409402684    0.48272765925654
O          -0.66640100550268    2.27666060643346    1.26619965773195
O           1.61168706823598    1.46737469101222    1.25306766932415
O           0.28136737242660    1.32730460595607   -0.75673715529085
O           1.03128075156273    3.49279011711056    0.01320986671007
H           1.08220088194829    3.97567737394821    0.83242194927942
H           1.96286058604470    0.16476976307578   -1.18298546716691
O           2.46163254741758   -0.24370709666646   -0.46404662099956
H           2.35211234258882    0.41778052770734    0.26588644826974
O          -1.06265560174220   -2.50065175584784   -1.46158094825907
H          -1.38731117601878   -1.57399546880206   -1.49143167288110
H          -1.83656538514516   -3.05352870123821   -1.34381187065705
O          -1.22733679085924   -0.26024687196460    1.52949530741820
H          -0.99282245775384    0.69163976557791    1.61503885989075
H          -1.82902551611036   -0.27749630594645    0.77137350403176
O          -1.92090935961131    0.02826936032794   -1.16857925859696
H          -1.08451393468958    0.54908865802235   -1.02953614860441
H          -2.46198481994852    0.56509765218790   -1.74912813615563
N           0.64036331419548   -1.84355880184618    0.53418163003719
H           0.09467966711109   -2.27062746602858   -0.24532050016484
H           1.44128724898756   -1.25851933959650    0.11964366313395
H          -0.02187252361828   -1.18058076183257    1.04158711033061
H           1.00208041646493   -2.54703464561798    1.16832443334156
