    23
        -45.38134557  Gyration_radius:  2.27251787592 Dipole_moment: 3.513
 S          -1.35237654644147    0.91589709612714   -0.64765761358780
O          -2.02376970302598    0.56460874291622    0.59536422395224
O          -0.15281772349291    1.69171108937285   -0.44751544304286
O          -1.13379702229969   -0.27187347407483   -1.47308332119599
O          -2.35482326573153    1.83528661361142   -1.45677387845887
H          -3.14220068460583    1.30228973249935   -1.49786155764888
H           0.31227988290079   -0.75022316265653   -2.24619609777251
O           1.19134722282233   -1.10796980813655   -2.48508318053209
H           1.08962054325469   -2.06061197866257   -2.51446458018155
O          -0.85011228724359   -1.93653826347818    0.53085188422408
H          -1.57232795915862   -1.59789155348142    1.07055865919913
H          -0.94969436886263   -1.43528748223197   -0.31037115717622
O          -0.20568309005512    1.40121443420548    2.28815800508948
H          -1.00481119186561    1.10704367619121    1.79313846425618
H           0.14600778892508    2.10766018349301    1.73557515221820
O           2.22444154720952    0.48203150911141   -0.57909667207267
H           1.46934097065956    1.10370753499307   -0.62334731110305
H           2.08919688563608   -0.10676272287414   -1.34828826676157
N           1.26549353790844   -0.67097378251028    1.54542688829529
H           1.78934804122289   -0.26253707266708    0.69490903883949
H           0.51407523103485   -1.31693095949121    1.18395477602752
H           1.88993443764936   -1.13918318353488    2.19193483945107
H           0.76132776353466    0.14533283128489    1.99986716797475
