    23
        -45.35976641  Gyration_radius:  2.35401573168 Dipole_moment: 2.396
 S          -1.26045249691028   -0.76735605491220   -0.39025842258175
O          -1.27048203762149    0.04742885096072    0.80420881259540
O          -2.35550991896455   -0.54035564963635   -1.27689486054388
O           0.07457844123984   -0.48965929650647   -1.15170751873501
O          -1.14202121739248   -2.23421508718059   -0.02897697956985
H          -0.34761968818734   -2.37507280290708    0.63590707427071
H          -0.13443196008752    0.27848249804712   -1.77524893307583
O           0.83994752800832   -2.59230977267069    1.45416403660349
H           1.22237927575843   -3.43662933515313    1.20451048334250
O          -0.90520822505246    1.42494730893939   -2.51384791580482
H          -1.07878262146815    2.04355427204561   -1.77243049216941
H          -1.71667456499441    0.90811103925787   -2.60848261244390
O          -1.57387099366369    2.51899420237485   -0.14877978397910
H          -1.52713070719954    1.64764471964289    0.29537517166813
H          -2.47403981640680    2.82906910555606   -0.03412664915435
O           0.94303947682004    1.49851283126813    1.53726090721592
H           0.17069913285146    0.91303687567888    1.48746675906739
H           0.67382666323103    2.31282689855913    1.10522164831019
N           2.47950041691320   -0.75427803094860    0.60864883355041
H           3.48674763078413   -0.78449800472827    0.70099954098655
H           2.14266928889726    0.09695746956603    1.05946961629118
H           2.24204555267826   -0.67501728508690   -0.37339266041228
H           1.51079083075656   -1.87017475214400    1.18091394456541
