    23
        -45.37623440  Gyration_radius:  2.39703823459 Dipole_moment: 1.827
 S          -0.73997349823487    0.95196253808402   -1.45149052384893
O           0.15905765367801   -0.15773232718040   -1.74175481921981
O          -2.01022372657998    0.52829393938621   -0.91675024615850
O          -0.07583626921493    1.94807453324525   -0.61387265662100
O          -1.03915871410035    1.65690060143148   -2.83887045276331
H          -0.17481287336698    1.83610423935720   -3.19869048837261
H          -0.66014901607275    1.50887110454518    0.91411700806247
O          -0.97151874256521    0.97333426985288    1.67383113921350
H          -1.91165928072424    0.85239427731690    1.51375993966877
O           2.73917174311050   -1.25745174129289    1.15735644042721
H           3.33269728842685   -1.59683196662641    0.48577925097014
H           2.66031740207734   -0.29271573447323    0.98208039764324
O           2.24216966775865    1.32327776945471    0.57519369979252
H           2.15028646850331    1.86589535577615    1.36114869618425
H           1.45642124052534    1.52834889659249    0.02788106573173
O          -2.36773981292094   -1.99416430831257   -0.05725221902167
H          -2.31405957183459   -1.07732790849078   -0.39776611809319
H          -3.02857365708190   -2.43383213427556   -0.59287999206267
N           0.11895898939838   -1.26097503645748    0.64217320049109
H           1.06980217146654   -1.52806406667008    0.97647849560200
H          -0.58249958830433   -2.00812130711105    0.64057609113342
H          -0.25538498680780   -0.45923590287352    1.20998147165464
H           0.20270712284857   -0.90700509127830   -0.35102937041382
