    23
        -45.34683083  Gyration_radius:  2.48901271697 Dipole_moment: 2.654
 S          -1.82869682715966   -0.05263665722997   -1.41892235136524
O          -1.41263122026731    0.09386554127745   -2.78120618154640
O          -2.17801589826645   -1.34968618162711   -0.94898686311469
O          -0.78977913432180    0.57487745603729   -0.48417601403753
O          -3.06771572971850    0.90221896693330   -1.21107256582713
H          -2.94482781345137    1.64678098888475   -1.79656278795193
H          -0.30497741024832   -0.24845158109776   -0.01618486395895
O           0.08628102344267   -1.49165400678578    0.56194484872151
H          -0.71242764510177   -1.98399306185380    0.33386535326524
O           1.29422171011623    0.30321264121486   -2.69379295602592
H           1.64115517554064   -0.12064704223346   -3.48063119752316
H           0.32610127031518    0.27988566878155   -2.77231344084982
O           0.97164302982420    1.67907761116238    1.53902069266259
H           0.25831244787256    1.82400448442457    0.91198719436507
H           1.65888527841758    1.21427789622711    1.01798223159060
O           2.39554679288965    0.07915221404775   -0.14159993409389
H           1.95456588560365   -0.74693402879905    0.08023785075512
H           2.10699581852759    0.28999051904000   -1.04445487735270
N           0.08720645894620   -0.57881985524796    2.98726192983711
H          -0.78657153728161   -0.45079840442758    3.48071628562186
H           0.05731558490935   -1.25292282142424    1.55972012172419
H           0.42170402343268    0.34309845290872    2.68009755746311
H           0.76570871598475   -0.95389879019078    3.63706994766100
