    23
        -45.37210863  Gyration_radius:  2.38379049638 Dipole_moment: 4.603
 S          -0.95013759946583   -1.53348953923391    0.12272073212215
O          -1.72749146318289   -0.50496947488680   -0.57472941763432
O           0.34418154859195   -1.71434833509840   -0.48642215716216
O          -0.89429911206035   -1.26875115408572    1.55194052320894
O          -1.74681688766518   -2.89424217618769   -0.03458612166553
H          -2.41953050238612   -2.82503982465925    0.63609363501615
H           0.01309936602347   -0.00714116288719    1.92360010013542
O           0.56699593743527    0.81234541278353    2.03356057228081
H           0.24023471753734    1.24880482999661    2.82176585482506
O          -2.36066828181700    2.17670095868028   -1.05367844628957
H          -2.36987440323246    1.22412423538695   -0.87259570237717
H          -3.20499569085564    2.38035472510831   -1.45756206950021
O           2.55040024168408   -0.85595583316470    0.83016608747800
H           2.16571897134769   -0.24957434944690    1.47374919913262
H           1.80178225034802   -1.38570047020325    0.50036314079970
O           2.31580607194170    0.05980622170582   -1.65993132993744
H           1.84499854429726   -0.73271296683045   -1.94160974057731
H           2.69312129872270   -0.19882791533370   -0.78706784763504
N           0.23927508289114    1.28196131252802   -0.61531698338659
H          -0.50364700570461    0.54203228875077   -0.70390829972986
H          -0.15294938331847    2.15104810826015   -0.97594375689602
H           0.44633284399081    1.35545511952923    0.40102579893456
H           1.10846344486010    0.93811996928166   -1.13163376114858
