    23
        -45.37871380  Gyration_radius:  2.32966807069 Dipole_moment: 4.107
 S           1.37126941214523    0.98793694505850   -0.89390251339742
O           1.32190296163088   -0.11884122690061   -1.84263083102193
O           0.18418710276117    1.80725917292512   -0.89518724502624
O           1.73972575905666    0.51186826775525    0.44050762578502
O           2.55783078950199    1.92727520239509   -1.36853181136947
H           3.30712524061470    1.34409984009829   -1.44406494376689
H           1.47624657872438   -1.14940131466254    0.44596498810167
O           1.17284358894534   -2.00615235953394    0.07020512564058
H           1.34319008013096   -1.87115551105638   -0.87305606781337
O          -1.85529515302850   -0.02548397872036    2.25166093218638
H          -1.63686165623754   -0.33554278939698    3.13185662138034
H          -1.25525633524850    0.75583163665055    2.08740208558360
O          -0.11117430118587    1.86047457276361    1.76622230884925
H          -0.32848138500917    2.26100126032164    0.91210056323193
H           0.69378602484729    1.35363962022159    1.54651494577714
O          -1.29995315410833   -0.07845822196828   -2.03066312884675
H          -0.35649860384681   -0.25558187560747   -2.22778541969999
H          -1.25541352073506    0.83893409450352   -1.71908182655443
N          -1.43307890918892   -1.57886226132545    0.13531707118529
H          -0.41064722200339   -1.87255626770164    0.18394796997894
H          -2.04634191558491   -2.38487594934386    0.08187842791466
H          -1.65884050419589   -0.99220686052758    0.98433148069452
H          -1.52026487798030   -0.97920202597482   -0.74300634878485
