    23
        -45.34917507  Gyration_radius:  2.36709266524 Dipole_moment: 7.531
 S          -0.33132834008812   -1.93434963044891   -1.21752770802209
O           0.46712983030138   -0.92026624412564   -1.84074493077500
O          -0.65438845614793   -3.09003684267801   -1.96659010059616
O           0.33927500618910   -2.31565042503908    0.14587758889664
O          -1.66206911000861   -1.28011627796948   -0.71290720666724
H          -1.45425508210256   -0.82183422498719    0.14618062391253
H           1.21074120304786   -1.83380838220254    0.22784946022671
O           1.13881748411077    1.24110720491516    1.28241584935835
H           1.33551210112200    2.04795733360256    1.75944990182918
O          -2.49158996453096    1.50671312914690   -0.47520224162856
H          -2.63353085533436    0.68861927180569   -0.96188235343958
H          -2.40648438524022    1.24901604250653    0.44748472353765
O           2.49911620470532   -0.98436894060965    0.65279053958307
H           2.92170745223442   -1.31657718975796    1.44746375304844
H           2.11589588652645   -0.10802685509388    0.87032499741499
O          -1.08608015786684   -0.18192516584411    1.58522260878600
H          -0.84202552712862   -0.97313130827750    2.07088793239330
H          -0.26948468004777    0.37154605027583    1.52138084738653
N           0.34760434147050    1.78858994998269   -1.07605890452907
H           0.86553131902834    1.52829383609710    0.30868021184190
H          -0.65511153049494    1.96610782256567   -1.02716265977138
H           0.77397072255905    2.49319116714669   -1.66246913686069
H           0.47104651760124    0.87894967888053   -1.52546381590384
