    23
        -45.38323500  Gyration_radius:  2.28344401898 Dipole_moment: 1.479
 S           1.29142002845149    0.25586740041669    1.35451575732763
O           1.44380813396324   -1.17475999449673    1.50661474743753
O           1.76492771578683    0.76031317010516    0.07559988692408
O          -0.07522811876754    0.69551593669257    1.62527808373489
O           2.21145668625058    0.91016074025415    2.46472598031911
H           2.32075094413567    0.18781731770236    3.07427313336152
H          -1.31114367737940   -0.18148538061518    1.01869240606957
O          -2.03242828683831   -0.69643347544140    0.58112636311683
H          -2.77158840836736   -0.68620085943144    1.19092878691068
O          -0.09707268192459   -2.52006390063786   -0.18241619917540
H           0.52720337764167   -2.21011319197436    0.50866961756375
H          -0.95780635970621   -2.15825584954276    0.08417965172392
O          -1.64736363527748    0.77024814620674   -1.73875204726550
H          -1.29489584941258    1.57819333412060   -1.29857324706148
H          -2.04928557076841    0.25276817973049   -1.02040021569056
O          -0.35041545253080    2.57496664295071   -0.24963444085041
H           0.57065243640330    2.60306347414231   -0.52384800089051
H          -0.33996202966336    2.01124938608712    0.54787577119312
N           0.57545057600373   -0.60115415432855   -1.83799586405446
H          -0.33571510593686   -0.04909049115740   -1.96793965731820
H           0.33216303509048   -1.50453796882634   -1.32650168888030
H           1.05284920722594   -0.77170406779559   -2.71550111545087
H           1.17222303563680   -0.04636438417342   -1.17091771905203
