    23
        -45.35094021  Gyration_radius:  2.37554334046 Dipole_moment: 8.136
 S           2.25816483065536    0.27296398172392   -0.50920297734805
O           1.01332101816253    0.33905069912129   -1.22984673440164
O           3.31491094182532    1.09915648199841   -0.95710827446331
O           1.93253870806815    0.55229714223135    1.00305408423749
O           2.73297422574897   -1.19666212303398   -0.44537558562179
H           2.01251584285900   -1.68253689139299    0.03460223128038
H           1.04451259894700    0.98581459316982    1.09314898575305
O          -1.55519657688350   -0.91861976987195    0.96484671483561
H          -2.37004492969279   -1.31495955603803    1.27639741621571
O          -0.47372945113264    1.46854940349254    1.47879914840926
H          -0.53716156839124    1.64621353176288    2.41930002261385
H          -0.95146387188305    0.62420860259398    1.30639023912195
O          -1.01705489073696    2.26823035881670   -1.26474189501470
H          -0.98816923977859    2.40071631777392   -0.31270646111281
H          -0.22809718780589    1.74237308488643   -1.45988172376688
O           0.85123880290126   -2.16051892183988    1.07464816986980
H          -0.03323201500256   -1.74584363381517    0.98572307065596
H           1.21309832217405   -1.85197798080894    1.90870200220921
N          -1.70140891708590   -0.53308177301339   -1.57725645043366
H          -2.16019474511959   -1.10080961397533   -2.27775728231029
H          -1.65825277051299   -0.80141571554638   -0.05515898410407
H          -0.70111580966287   -0.52725841112628   -1.76501020865698
H          -1.99815330765870    0.43411019289166   -1.69156547797187
