    23
        -45.37549145  Gyration_radius:  2.39583215804 Dipole_moment: 1.237
 S           0.81403171697862    1.50302205634337   -0.76491629272089
O          -0.43685251330382    1.66265700170846   -1.48496534311298
O           0.64604067237326    1.48432455030558    0.67164254937162
O           1.56048093673626    0.34515768576722   -1.25251364251326
O           1.69899814637002    2.77649707946992   -1.09476335916143
H           1.75632612633887    2.78265518454037   -2.04608362636145
H           0.29520624952079   -0.69512126516568   -1.64915443381040
O          -0.56837867529694   -1.16014594726458   -1.66171350246832
H          -1.15781602627878   -0.56078804274151   -2.12858707652971
O          -2.72749633774369    1.30569668915332   -0.13127928582303
H          -3.20600829803334    2.13467443924370   -0.10701915212371
H          -1.91803059357444    1.48133717781600   -0.65558743191363
O           2.07737625473650   -1.63674145024403    0.48326360545451
H           1.96878902651925   -0.82420505383214   -0.05104289717478
H           2.13269821711210   -2.35320087146003   -0.15233470380586
O           0.37602024241138   -2.08279671715044    2.51925936928226
H           1.06182082936733   -2.00480226331622    1.81856932783042
H           0.75396752252828   -1.67140770973091    3.29820350090976
N          -1.04794304694914   -0.51543722823222    0.90006239914390
H          -0.94008662203448   -0.94635401108410   -0.05323484043414
H          -0.37701247399530    0.29989400314674    0.92755209539527
H          -1.99429623396860   -0.13157238276757    0.97197342853966
H          -0.76783512982583   -1.19334292449680    1.64266930203185
