    23
        -45.37289546  Gyration_radius:  2.43372255202 Dipole_moment: 1.629
 S           1.61482974992016   -0.40314418026256   -1.27678612644611
O           2.30067790460712   -0.33989759937826    0.00958109741015
O           0.70305797978287   -1.51107795868747   -1.40509425925516
O           0.96847084008337    0.87566151990216   -1.58058921735231
O           2.75846366561086   -0.60161055917192   -2.35567045558583
H           3.47711539006478   -0.10412769446622   -1.97796500432747
H          -0.69504524568237    0.81182608342301   -1.71326833121210
O          -1.67854759199522    0.80318196041303   -1.65991916863325
H          -1.98310828046163    0.55672507702366   -2.53425854210225
O          -1.43125424346340   -1.22313064405700    0.10562995297748
H          -1.82976880281048   -0.53480814664774   -0.46253907586421
H          -0.69380305100895   -1.56766490188272   -0.44581383257857
O          -0.07473507754253    2.60251297366875    0.19023688784922
H           0.46388368877922    2.16570574243868   -0.50004581975312
H          -0.96451551853597    2.62370960971778   -0.17506861257055
O          -1.23176744727910   -1.57265715989227    2.95534103250120
H          -1.52935198925738   -1.69860029405920    2.04412093339562
H          -1.47363729360935   -2.36720459805136    3.43239655475939
N           0.26449131759226    0.30875702299365    1.50139381684327
H          -0.47701956691389   -0.28368197836147    1.03622153554512
H           1.18411735289060    0.02473493359625    1.06036450574414
H           0.09500327510991    1.31248071775179    1.25040745563343
H           0.23244293420703    0.12231004386574    2.50132465306671
