    23
        -45.37222844  Gyration_radius:  2.32605551379 Dipole_moment: 3.875
 S          -1.86541194174910   -0.63785427614407    0.86698576654447
O          -1.20509446108940   -1.37754879142989   -0.21201784496898
O          -2.87984446892456   -1.34401591202876    1.57451998112393
O          -0.67040972116428   -0.43621551133984    1.96134791312088
O          -2.20187648727116    0.70708326421801    0.43651035438239
H          -1.29063653492824    1.74407257416957   -0.29924036967204
H          -1.21266953365291   -0.49400187207441    2.74008374176546
O          -0.65920107455287    2.33282179002527   -0.80312443754289
H          -1.13418728170227    3.14774782503136   -0.97001028703036
O           2.43595265917125   -0.36891509182358   -0.73972138297768
H           2.29091893052664    0.33266047503076   -0.06887490930281
H           2.19251045587897   -1.20231211693965   -0.28059992522503
O           1.28840531480484    1.35832788895145    0.96597475966744
H           0.74127181010048    1.92945832293784    0.40742542609171
H           0.67097962984352    0.77273772487924    1.42400264430874
O           1.17071959462117   -2.30644311922681    0.62248836936019
H           0.26467807521348   -2.10800865132260    0.31390691647525
H           1.16848479170367   -2.12207314497237    1.56389621781059
N           0.17433698358893    0.01982137787696   -1.93604804721162
H          -0.45464890926321   -0.57179923486546   -1.31652509705999
H           0.07417056778694   -0.24090866593240   -2.91025869802603
H          -0.08522747580792    1.00895584749860   -1.77163476549137
H           1.18677908687549   -0.14359072249556   -1.56908630613417
