    23
        -45.36531868  Gyration_radius:  2.38843838688 Dipole_moment: 7.428
 S           1.78717597396837    0.31547797354811   -0.89690048959567
O           1.17533678347465    1.42528269524460   -0.12830601756538
O           2.87452506519475    0.70597154235490   -1.71909216502729
O           2.32706325756951   -0.68799276893808    0.20065942759887
O           0.70750996237443   -0.41375545813376   -1.58668359066002
H          -0.89985299875286   -0.17647516490671   -1.72428403411771
H           1.55705056900994   -1.00759568758210    0.70124971804677
O          -1.87708497240716   -0.04998880397358   -1.61684522780581
H          -2.13237764110819    0.58709367897200   -2.28509308085432
O          -0.28203245479367    3.17627203970398    1.49880385754639
H           0.02452927483169    4.05218014776094    1.73588589755644
H           0.39639683577879    2.80002635479560    0.91729655953167
O           0.16106848739576   -1.78276588674287    1.49958652389779
H           0.52641093451239   -2.45250038535760    2.07941769591327
H          -0.07561552846285   -2.24626035076723    0.64792074204841
O          -0.32256177647382   -2.71187504004925   -0.88441125408003
H           0.20037336086190   -1.97047193705869   -1.27126882587989
H          -1.21303331857626   -2.59001279272717   -1.22324605212307
N          -1.02579956277177    0.59456055636359    0.83594198594694
H          -0.06805681360773    0.93188105594684    0.41334625764393
H          -0.83742735062007   -0.24913837824940    1.38691457079708
H          -1.37026298746276    1.36958739762558    1.40132108670991
H          -1.63333511993951    0.38049921216709    0.01778641447637
