    23
        -45.37150156  Gyration_radius:  2.43250643129 Dipole_moment: 6.941
 S          -0.90121478942076   -0.49184251313798    1.63142218171603
O           0.29018256094719    0.34247773364330    1.79972054469690
O          -2.10512028473430    0.08143003671569    2.13720243176863
O          -0.99822230729897   -0.90928582348200    0.21815880811444
O          -0.60648944519684   -1.82342713430936    2.43941576896669
H           0.20984480544514   -2.15731381863888    2.05927067888848
H          -2.28299812662735    0.08577904717911   -0.31845345491713
O          -2.84485350502246    0.87970489080167   -0.40462750322722
H          -3.06699729682653    1.08017693445275    0.51175371678982
O           1.08337001331795   -2.36700115530038    0.13828712151442
H           0.26287322589806   -1.79950859587414    0.09026251631425
H           0.86589908218711   -3.17897509600055   -0.32445240302894
O          -1.00428724753342    2.14137521468773   -1.79184060868153
H          -1.75923822818672    1.79405464282901   -1.24824657085353
H          -1.11809484828065    1.74870986040934   -2.65930109471110
O           2.67659893538967   -0.62942989844737   -1.13954361344989
H           3.53896918266343   -0.68662370018104   -0.72473696034878
H           2.12369054004584   -1.32156483028747   -0.70851225941539
N           1.13870654674390    1.45666694054958   -0.35591109697946
H           1.67022291469166    2.29382076423639   -0.14107032297568
H           1.74829351916534    0.73187921613196   -0.79756136882083
H           0.76207416082398    1.02526757745841    0.55939375025156
H           0.31679059159620    1.70362972656028   -0.97063026188621
