    23
        -45.36280300  Gyration_radius:  2.31618362167 Dipole_moment: 3.159
 S          -0.31991124255677   -1.18524442867974   -0.73727887186010
O           0.14189248113349   -1.18241531774224    0.62314109198395
O          -1.62683800980425   -1.71642091439990   -0.95154330310255
O          -0.27288534648869    0.29579701936922   -1.26158354930551
O           0.68270901314148   -1.86477552216025   -1.66020562891236
H           1.63507048984762   -1.58345152970349   -1.39349519003993
H          -0.81026869820023    0.86307575592246   -0.62629203041439
O          -1.68260493610101    1.61438619950015    0.44300128192659
H          -2.41426271546613    2.06861362702080    0.02040797167178
O           0.98061962730297    1.23375381508350    1.50815823586535
H           0.78318291689963    0.29130692556552    1.36004266520721
H           0.13900711186580    1.69104260490566    1.40789484947503
O           2.28100773541085    1.45251672526126   -0.81400633648972
H           1.46511239916530    1.38761994503795   -1.32367907640362
H           1.98388777758700    1.50427860201895    0.12380707082713
O           2.99757035702669   -1.03735133433295   -1.08041058722418
H           3.58019135824506   -1.10249954466498   -1.84044802689746
H           2.83890940706214   -0.06086756502662   -0.92383186248177
N          -2.55722114323805   -0.60151635075585    1.49594068505217
H          -3.44292367803235   -0.79588117494125    1.94698027481708
H          -1.81307897545439   -0.92721862818520    2.10188254393840
H          -2.49171798438266   -1.16221475378953    0.64735524593996
H          -2.07744794500196    0.81746584481679    0.93416253658043
