    23
        -45.36664376  Gyration_radius:  2.42794469285 Dipole_moment: 6.493
 S           0.84677126763254   -1.86356717188124   -1.18194425445328
O           1.02803732533248   -2.25017648388553    0.22019010999365
O           1.44869205315175   -2.74990855496933   -2.12199342367602
O          -0.74443016351734   -1.96291260877336   -1.43188058304367
O           1.14191359609024   -0.44366194809542   -1.36067078261562
H           1.50374590574389    0.76734230486014   -0.37460485814266
H          -0.80423209757684   -2.87359205411127   -1.69810268651178
O           1.67987904258664    1.46168319928362    0.31407523667179
H           2.51883106591936    1.85911708499644    0.07753236250119
O          -1.09095335416858    0.76014144086092   -2.21188541231032
H          -0.22364143334746    0.34577771509501   -2.03424885985505
H          -1.72068271034847    0.03856051492210   -2.14443158252494
O          -1.93606149516821    0.51041586320076    1.74581695107278
H          -2.43763041206484    0.98287676189381    2.41099094504350
H          -1.69399523949564    1.18635889413283    1.04891481984402
O          -1.03400967956736    2.23765733363171    0.01739198926093
H          -1.16983318065005    1.82627792336840   -0.86578993717565
H          -0.07511899817561    2.22199543351125    0.14612593212756
N           0.55269583711162   -0.40653417020223    1.91782959038671
H          -0.46901828457824   -0.14752300221916    1.93069549726329
H           0.71401138865443   -1.22272111137876    1.21038928742334
H           1.08763172552270    0.39948064600341    1.54612516652500
H           0.87739783091381   -0.67708798024627    2.83947451219662
