    23
        -45.36806522  Gyration_radius:  2.53860210763 Dipole_moment: 4.474
 S           0.81079533050393   -1.87671912525636   -1.18863526971810
O          -0.55215093444282   -2.26290395242017   -1.46749750104761
O           1.07723945644754   -0.46570831216798   -1.48067738971253
O           1.27471502745567   -2.21545040478677    0.14616874555932
O           1.70506106891430   -2.71551109922605   -2.20287935593421
H           1.06429290382082   -2.94817638097353   -2.86766462228259
H           0.65516697259861   -1.53291502224523    1.41692391688931
O           0.26790614265934   -0.96353596501082    2.14044912710621
H           0.35029321023743   -1.46666480354736    2.95163954303094
O          -2.35802110490482    1.84905589468086   -0.36389500222349
H          -2.14639138687978    0.89289485497279   -0.22766656999354
H          -3.16607281722702    2.00653251737040    0.12636585170294
O          -0.13571427620164    3.16025654094318    0.07724240916056
H           0.08393151027445    3.52122531084021   -0.78376874165332
H          -1.01903245987505    2.72131551589101   -0.04467795103166
O          -1.81331765887212   -0.66164999274583    0.25352298439339
H          -1.46010666455591   -1.26279261867326   -0.43171540235171
H          -1.24767174967763   -0.77334487978895    1.02909822399423
N           1.33497059652207    1.01358327897654    0.60190154571918
H           1.25558869844703    0.40598511618284   -0.29342664942082
H           0.93164954192976    0.45223745751098    1.37195865510373
H           2.30994446293044    1.22078380705526    0.78910246636379
H           0.77692413982990    1.90150224239148    0.44813097627317
