    23
        -45.35612699  Gyration_radius:  2.35542615472 Dipole_moment: 7.024
 S          -0.78101322301864    1.88803677172679    0.81265706158704
O          -1.41765485626872    1.37751641573086   -0.37538720101018
O          -1.04298874976279    3.22812439738826    1.17808772692680
O          -1.12392345514154    0.96385213090287    2.00964238813726
O           0.75696800840014    1.66754345702493    0.64783222015655
H           0.95155154827520    1.17140279949126   -0.20033352779516
H          -0.90505612008737    0.01947292609762    1.77775069794868
O          -0.41942816507593   -1.49206568415442    1.51345187058285
H          -0.47304306986171   -1.98316844929853    2.33532084852989
O          -2.12926116980167   -1.24812412952062   -0.71921616118471
H          -1.59242996839900   -1.63944463494200   -0.02005316838668
H          -2.15354737576347   -0.29980645739456   -0.51242765919226
O          -0.85200611131231    0.00100326868265   -2.74191892677423
H          -1.27947068720499    0.80418234465828   -2.42020713918964
H          -1.30077019051163   -0.70961721321776   -2.24001462909959
O           1.39792366618206    0.41428129250992   -1.52801090822588
H           1.86107351963509    1.03261543175865   -2.09648029697438
H           0.54711502524831    0.18310384572189   -2.01514529509798
N           2.11233072921511   -1.09440016864332    0.91797649185266
H           2.06369220077496   -0.84098567453193   -0.06470794420449
H           2.84285820818296   -1.78546224324713    1.03260822091323
H           2.37806278480251   -0.25783741846401    1.42404290195276
H           0.55901743151659   -1.40022302821116    1.28453242854394
