    23
        -45.36803162  Gyration_radius:  2.28120286011 Dipole_moment: 8.180
 S          -1.49635460142970   -0.28757363132606   -0.01892058905558
O          -2.55723892432683    0.19830267028891    0.81228404829535
O          -1.86664361615017   -1.22307354566393   -1.06015015616798
O          -0.89263575201482    0.97369491850412   -0.81010936607747
O          -0.34231817413156   -0.79721969103608    0.74619789178251
H           1.24776931410183   -0.50104304763062    0.82561431762177
H          -1.14050003541443    1.76573109958521   -0.22707399303230
O           2.21168686419509   -0.28836487638281    0.72608907701124
H           2.68758385220727   -0.96877065803554    1.20428770069472
O           0.11749629836075    1.27454917401284    2.40263226555481
H          -0.21616631789859    0.46601199287672    1.96966284926065
H           1.05925563430219    1.30548009906462    2.21454226461473
O          -1.63442912041381    2.67122977410258    0.92218634926973
H          -0.97974913947304    2.45174054851426    1.61591272522969
H          -2.35993298929224    2.04224690434728    1.08070856569857
O           0.20290371124196   -2.60429722386516   -1.57045159360482
H           0.39354386961056   -2.98451517480611   -0.70949041555020
H          -0.69651433513636   -2.17306215938755   -1.45226367617716
N           1.27690981922815   -0.24925064366932   -1.76325034768447
H           0.92075181316634   -1.27243325742964   -1.78880500264932
H           0.43741783187650    0.33213052680307   -1.53385797179551
H           1.92413058195683   -0.17012979994864   -0.94788240209885
H           1.70303342540740    0.03861599107944   -2.63786252109742
