    23
        -45.37882857  Gyration_radius:  2.32763782214 Dipole_moment: 3.285
 S          -0.70456520991930    1.72920238003861   -0.36805352909825
O          -0.28334830821724    1.42615574366727   -1.73125179132808
O          -1.65303221704907    0.75815359549858    0.14893498998389
O           0.42921485259619    1.95376467024937    0.51271623682352
O          -1.50221218707837    3.09908442131177   -0.43617562915330
H          -0.85317260268525    3.73755464273576   -0.71614639137950
H           1.92809884849355    1.00523479507705   -0.19152177254498
O           2.04541280410081    0.48138919840328   -0.99980868786096
H           1.32046176214055    0.83571131201190   -1.55681289155366
O           0.43613083275834   -2.04045466774130    2.03881655815641
H          -0.25644684224373   -2.61085235708241    2.37572281830548
H           0.16126945283692   -1.11334690863363    2.28537843977254
O          -0.46867462711855    0.37455292088409    2.47899868841091
H          -1.17252512275405    0.41320003623354    1.80534587521830
H           0.14882423243320    1.04487513223862    2.14906173317023
O          -1.33665036157260   -1.04816613752541   -1.71306967893535
H          -1.70872383639246   -0.54595483276439   -0.95736949970611
H          -1.00307951469102   -0.32844512410883   -2.26971439948060
N           0.90406358056033   -1.85935395954879   -0.57307770383616
H           0.73779227053891   -1.99416449178062    0.46121989911424
H           1.49109512456974   -0.98106106790478   -0.71483138687129
H           1.36648880709058   -2.66924123841711   -0.97158139716503
H          -0.02642173839719   -1.66783805284122   -1.05678048003150
