    23
        -45.36477736  Gyration_radius:  2.46953855139 Dipole_moment: 6.799
 S           2.05208435626453    1.38832181771389    0.07985698088676
O           1.29573533083265    1.68383126032772    1.27420370587537
O           2.91045074861894    2.42242661945167   -0.40167256847778
O           3.03131242101876    0.15220371068198    0.44869231124418
O           1.17147423525406    0.80014109684481   -0.95340614933657
H           1.07834239383001   -0.71176742468138   -0.42160169701336
H           3.84013993523843    0.63924403972316    0.55651756840676
O           0.90284857351825   -1.62004728937389   -0.06513539711625
H           1.76838404670818   -1.95640754395585    0.17530198765042
O          -1.28168964817520   -2.06295319758424   -1.57222700938661
H          -0.41469989761205   -2.06678479157187   -1.11721803214278
H          -1.85046819242845   -2.64755176799772   -1.06852531525942
O          -2.53526940501808    0.78926591208532    1.09550677532218
H          -3.27001082305063    0.29040396984505    1.45383430719960
H          -1.71481265173114    0.45497201834957    1.56217014690627
O          -0.32921648663082   -0.22698558020909    2.02227088293166
H           0.00858335110326   -0.90538420286529    1.41677136163876
H           0.28137132211307    0.53588779307773    1.89148335217913
N          -1.40721353228005    0.62094407084123   -1.28981238948685
H          -1.92983259220912    0.77657491844414   -0.38449299469546
H          -1.47498161408712   -0.39207491947861   -1.54330059845369
H          -1.75994035143831    1.21624097073088   -2.03093358097504
H          -0.37259151982705    0.81949851957542   -1.12828365789882
