    23
        -45.37623445  Gyration_radius:  2.39705121864 Dipole_moment: 1.833
 S           1.65100603201654   -0.54944979936282    0.73056570719422
O           1.58033351083021   -0.30143298655136   -0.70390750315169
O           1.55689960348687    0.65358952266783    1.51974700428122
O           0.67815654087242   -1.56511257096659    1.12663585304744
O           3.08447065496405   -1.16687355137997    1.00476448791168
H           3.14093085438528   -1.89854719950752    0.39646213209494
H          -0.58167468085411   -0.58471420004909    1.69425211457558
O          -1.21288838546808    0.15927935363920    1.78839746174530
H          -0.75154770162578    0.79809952323305    2.33900844474036
O           0.77117645239339    2.97091606086630    0.40513474608978
H           1.48035173324155    3.61296440645728    0.44637896121988
H           1.10872670766393    2.17013360997790    0.85707322908977
O          -1.24255425250993   -2.28187584435909   -0.59800805039664
H          -1.93101249031353   -2.49452920787319    0.03559935140134
H          -0.45588853591524   -2.06074419978684   -0.05820400938432
O          -2.05586348727762   -0.49483183829586   -2.43971230207864
H          -1.82749020981371   -1.22070093657844   -1.81633215930698
H          -1.63583625528621   -0.72266365539533   -3.27050479097354
N          -0.69273000269914    1.01548399935219   -0.71024122859955
H          -0.48494104401571    2.01870872188507   -0.68587661835422
H          -1.07121028081468    0.73477532065767    0.22954050064762
H          -1.33627445828455    0.70066762154285   -1.46790327735241
H           0.22785967494747    0.50685785982230   -0.82287004445859
