    23
        -45.36572970  Gyration_radius:  2.23120059514 Dipole_moment: 9.075
 S          -0.77907392219120   -1.33141489627397    1.28690488735492
O          -1.83799315324918   -0.67530702222061    2.02041975450132
O          -0.54961599817242   -2.72044067109736    1.51553527280144
O          -1.20211430127277   -1.25165277243052   -0.26773195189559
O           0.47178994598306   -0.53887516097078    1.35347414931110
H           1.30249854806020    0.72648876819728    0.87666884829622
H          -1.52391277245556   -0.35982735553803   -0.46904628646173
O           1.85892498694019    1.40745211169307    0.41282382820212
H           2.74811669056078    1.28148556176496    0.74831513660570
O           1.37760464927096   -2.08707259777448   -0.50943807841341
H           0.75720821158831   -2.82246584218024   -0.49472241572795
H           1.16887435366316   -1.62059421290846    0.33444324016852
O          -1.31408196462658    1.77054428068109    1.34330523149351
H          -1.58072535674432    0.88044418508282    1.69734659722737
H          -0.41522292004271    1.90960305936112    1.65079922308801
O          -1.50556492685226    1.29195631051625   -1.18373429940982
H          -1.40499847009450    1.60897514776309   -0.23638839696261
H          -2.37312735086812    1.58027159390436   -1.46958152942249
N           0.96189044709110    0.19195367561070   -1.75761639837873
H           1.03972960123951   -0.81561945751923   -1.39397140188840
H           1.44872163978408    0.78608869754944   -1.02715622570421
H           1.37780611207085    0.29410797545839   -2.67707392924675
H          -0.02673405968266    0.49389863133375   -1.75357524553827
