    23
        -45.38134562  Gyration_radius:  2.27240701613 Dipole_moment: 3.507
 S           0.17030532895590    1.28516722725223   -1.18675754912664
O          -0.53639391849638    1.80417934310216   -0.01577799442715
O           1.40436499541237    0.61802534364780   -0.85070996414167
O          -0.71653054836113    0.47306672207070   -2.00746926537686
O           0.56152477119225    2.54625418774582   -2.05923582792507
H          -0.28589324842401    2.89981163852155   -2.30947247595161
H           0.03571938563650   -1.00693255144418   -2.10516402644813
O           0.60389099948927   -1.78912668736953   -1.91632865703320
H           1.48123345710760   -1.40334149271623   -1.81846852953627
O           1.68518540285134   -0.48742312880687    1.56434586624730
H           1.80996277455491   -0.03915954645744    0.70293192800555
H           1.27556544299775    0.19853940252879    2.12842128049343
O           0.19410032924734    1.52687809171074    2.53716314362236
H          -0.01892623025447    1.76125506779042    1.61110606574799
H          -0.64195179253733    1.51743907234498    3.00595425606221
O          -2.15177228348309   -0.24365979514946    0.24209144868617
H          -1.62672030612662    0.58864672899626    0.25797028218367
H          -2.35772768130401   -0.35074167874611   -0.69261627183591
N          -0.18846726610734   -2.01139149639661    0.60020671655159
H           0.13173560083156   -2.10148476488871   -0.40792319289466
H          -1.04780424142297   -1.40007205169339    0.58283874228985
H          -0.37316216780764   -2.91413196695237    1.02218304182534
H           0.59176120604685   -1.47179767509080    1.11471099297980
