    23
        -45.35612728  Gyration_radius:  2.35556176715 Dipole_moment: 7.036
 S          -0.65997997193164    1.31061562078162    1.63769087689064
O          -0.83556781286221    1.80753145217063    0.29616436935411
O          -0.78456570013727    2.22974190085759    2.70428606565399
O          -1.63815604365620    0.13065090117947    1.87351611909910
O           0.73454654638461    0.60870881676234    1.69561844866348
H           1.15929382094349    0.59394953233672    0.78846240506770
H          -1.53403578112763   -0.54290154346551    1.14615660833054
O          -1.29148642084379   -1.73388990326010    0.09132800685151
H          -1.77912054380560   -2.50759915468061    0.37962849570785
O           1.95593945638699    0.53033343032667   -0.58865055448579
H           2.72687804793672    1.09765381969291   -0.52642842877292
H           1.35697818545125    0.96126547650115   -1.27437088822031
O           0.38007407858841    1.78032151987665   -2.21942704406504
H          -0.36640294450358    1.17099199258400   -2.39188344946125
H           0.02425849976834    2.38513922334321   -1.55680146754554
O          -1.84047712306162    0.31279858357048   -1.77333090858581
H          -1.72765351624765   -0.56412971298735   -1.38797321667415
H          -1.76375615738421    0.92505310556877   -1.02386761642902
N           1.28083221094675   -2.16237257678837    0.43974579714241
H           1.69754495054406   -1.44353732353291   -0.14497227819309
H          -0.31000000974930   -1.94745614442261    0.18704932428858
H           1.74720957989963   -3.03966422017671    0.24674091168875
H           1.46764663846348   -1.90320481624504    1.40131840365432
