    23
        -45.38129266  Gyration_radius:  2.28564279828 Dipole_moment: 2.185
 S           0.69031290760519    0.53074854314346   -1.58855300794102
O           1.68202058595105    0.47476551280628   -0.52942038094057
O          -0.05516179174322   -0.72075489693313   -1.69192267120276
O          -0.19090818184448    1.67620464922436   -1.51277347420556
O           1.50880238197962    0.68496164351490   -2.93583269074008
H           0.85464686172939    1.00467407456640   -3.54925465006049
H           0.07445939407460    2.32725615621669    0.04247496960853
O           0.37489929678798    2.47720510605623    0.96110617259106
H           1.31020034181977    2.25887836517909    0.93783357882227
O          -0.41299366487328   -2.85170840141331   -0.14500082892764
H          -1.36023436484127   -2.80271595173900    0.00752651846627
H          -0.23765989349716   -2.22425283617992   -0.87641254652058
O          -0.92563843852533    0.47500983810874    2.16450559750470
H          -1.55018769676031    0.28222948120325    1.43315917016536
H          -0.50995364250545    1.32901994703143    1.90526064792625
O          -2.13003364084223    0.04979351261114   -0.20935272599130
H          -2.30923605496757    0.94233088076746   -0.51651613585330
H          -1.41989084576647   -0.26812082314896   -0.80111704835622
N           0.94302797172855   -1.14895224259050    1.40304435714849
H           0.18453421910382   -0.52695941359195    1.86480148326979
H           1.36490765488320   -0.55409533996234    0.63974270024278
H           1.64733431665424   -1.45664874555497    2.06381149622258
H           0.46675230385511   -1.95886904930011    0.93288949875373
