    23
        -45.35138260  Gyration_radius:  2.45925088807 Dipole_moment: 9.464
 S          -1.26760977159995   -0.40936038084444    2.10661096284152
O          -1.34467804228838   -0.05477426636877    0.71336176116502
O          -2.39886910212672   -1.02733024910876    2.69110123444162
O          -0.03903334981460   -1.38052521488847    2.25439018120922
O          -0.85445633108188    0.83254470049080    2.92092819263070
H          -0.15444238133728    1.30969424631545    2.37239542853266
H           0.63681253641796   -1.11814035161378    1.59138596672868
O           0.88642537947156   -0.42897958879493   -2.03397535616263
H           1.25548168999495   -0.80314688744918   -2.83519543131457
O           0.97669478280457    1.78721331105555    1.40519919046840
H           1.49669482699422    0.99779577860353    1.20357176863989
H           0.58691454935063    2.05696000031421    0.54760324730354
O           1.82829217734870   -0.71574308313357    0.46186645200143
H           1.44999597580430   -0.62078184839934   -0.44309733930363
H           2.47495464411885   -1.42292017851984    0.42478601301684
O           0.44062938971375    2.22365220480627   -1.22262361589160
H           0.51113846892943    1.30718912949048   -1.53528957350560
H           1.14507837907174    2.72027256037371   -1.64271817604232
N          -1.62846205086232   -1.11710925738824   -1.85103021390201
H          -2.28788201301191   -0.60356142170030   -2.42244885074049
H          -1.68993725668293   -0.73293400263568   -0.90385399091692
H          -1.94010365620687   -2.07935894524400   -1.80659421271023
H          -0.08363883492934   -0.72065625536471   -1.99637363848783
