    23
        -45.37922921  Gyration_radius:  2.27249246795 Dipole_moment: 2.391
 S          -0.27840400705309   -1.78855160294462   -0.49425896566919
O          -1.51061087047506   -1.23062135590987    0.06042993566543
O           0.14573352512074   -3.00265866500248    0.13742375361846
O          -0.61968946175928   -2.13859308813321   -2.02189668983933
O           0.75861363117443   -0.76958140932792   -0.59774254557410
H           0.23471823596353    0.35735713266721   -1.66887866437860
H          -0.98695252618525   -3.01572818165736   -1.97078064981644
O          -0.09540451825398    1.12496564536750   -2.19136494653601
H          -0.49113286467081    0.74686209905380   -2.97781441100547
O          -0.04357383332178   -1.19360260459452    2.25502285447634
H           0.52030093557439   -1.93223132554176    2.00199485377615
H          -0.78347200160777   -1.25296978876210    1.62026480773396
O          -1.65861387070108    1.40995394186578    0.00973522041426
H          -1.22158339469648    1.55827189956372   -0.85127857829856
H          -1.79287420976892    0.43597146284068    0.04010199162616
O           2.23688529688022    1.42036193801856   -0.21927024416323
H           1.88355836679214    1.88651571721092   -0.98406323361726
H           1.99820143112494    0.48854139640187   -0.37259896039333
N           0.35214385349854    1.40060181921017    1.67207035054006
H           0.33081121369532    0.40557061740095    2.00698588808562
H           1.18678109455760    1.52261519894188    1.04125610116255
H          -0.52506086391818    1.51770012896245    1.05357715645464
H           0.35962484804560    2.04924904435345    2.45108497570857
