    23
        -45.37738366  Gyration_radius:  2.38158456379 Dipole_moment: 1.649
 S          -1.58176585431271    0.63861809693098   -0.66089490973054
O          -1.17715095235708    1.88153199683889   -0.03941551295270
O          -0.51573203835060    0.07387472395280   -1.48257318370124
O          -2.11180888608978   -0.32210973699630    0.29412676072556
O          -2.77930242456126    0.95102109028420   -1.65431090204163
H          -3.55907447371338    0.74112364992483   -1.14830193789687
H          -1.13634390315307    0.00112086599152    1.63216991088550
O          -0.41077823346536    0.34606517101402    2.19515529183063
H          -0.54402100355374    1.29867620081319    2.20087046638827
O           2.06906154327643   -2.53927632882803    0.05201020830808
H           1.10903531431497   -2.66256048071337   -0.13606231890518
H           2.53584444205744   -2.98405638476230   -0.65660722763826
O          -0.52036677875848   -2.46900616783549   -0.63480741310930
H          -0.53052284495862   -1.64182077413453   -1.15136155373961
H          -1.18988881841450   -2.32266291583133    0.04122941423702
O           1.38135480383027    2.70561747144403    0.01751529862070
H           0.43036410538827    2.47345732833167   -0.01857307303640
H           1.45237295943610    3.57691788823948   -0.37318319947393
N           1.45156486373514    0.04644430704801    0.30828887977202
H           0.85372424178651    0.10282025177590    1.17691394165075
H           2.03056536701389    0.88905517734230    0.25730780187684
H           1.96290706575314   -0.86229131992055    0.27861825247535
H           0.77996149506760    0.07743986911912   -0.49811501449985
