    23
        -45.35387513  Gyration_radius:  2.34529182288 Dipole_moment: 5.296
 S          -2.01919988807280   -0.41001667736757   -0.38033589648169
O          -1.53015234638080   -1.36834109091202    0.57693582004788
O          -2.41467318642472    0.86613876014914    0.08704756422879
O          -0.99628624965278   -0.27015256612459   -1.51084954140804
O          -3.25614557321592   -1.08495669160253   -1.08931448101572
H          -3.19728839766164   -2.02464504086458   -0.93179685222425
H          -0.30515648337878   -1.04729369997829   -1.39704770252350
O           2.30039574406312   -0.51730349882552    0.17437113317007
H           3.25701521653097   -0.50784094744009    0.13120550921718
O           0.56252782701403   -2.12857096729911   -0.93518574792645
H           1.33553655364415   -1.62205324795203   -0.57063440698371
H           0.02862166527648   -2.36324357268282   -0.16309927086328
O           0.38872547705248   -0.20337000077958    2.24241418323959
H           1.15997493169480   -0.36356974976526    1.67887613878827
H          -0.34960312274223   -0.67567726833914    1.83528750967704
O          -0.32913989962256    2.28590465481788    1.33485934741821
H          -0.05166916478592    1.53235051855272    1.88850548424188
H          -1.19357497423786    2.03695195364831    0.98399157626480
N           1.31811245802808    1.66060697092046   -0.85734707258548
H           0.63726446032576    1.39525680049130   -1.55942180771861
H           1.89253308436719    2.40207498152335   -1.23735811779400
H           0.78764357402842    2.04832829979527   -0.06562748059461
H           1.97453827411845    0.35942206005255   -0.23547587811769
