    23
        -45.36551881  Gyration_radius:  2.45055402922 Dipole_moment: 6.294
 S          -0.45291321441218   -2.33248810913069   -0.40335882682290
O           0.22333536398770   -2.25662372495151    0.87102030844892
O          -0.36133335094458   -3.57425181154593   -1.10055923866515
O          -2.02888668427989   -2.11614938694607   -0.10261141810578
O          -0.12070752264778   -1.14652863944846   -1.22215995346909
H          -1.15106897971478   -0.05929885668158   -0.62788181603106
H          -2.30300358018956   -3.02582138033882   -0.07753210683223
O          -1.67881069726818    0.67275138057029   -0.21907285245060
H          -2.56933623557637    0.32385013207297   -0.14626710171435
O          -0.12185252974726    2.50418030404046   -1.47162851988100
H          -0.44073553123613    2.51944272245800   -2.37571674144911
H          -0.79319089033801    2.01403274074497   -0.95682962716327
O          -0.36090314601301   -0.03892433438003    2.14631946690528
H          -0.14835403772723   -0.93720297708284    1.80351944132385
H          -0.92438426385166    0.35981767706480    1.46415746583781
O           1.93151868634384    1.13096249847579    1.84298468258529
H           1.09422532450152    0.64246091039765    2.10090481587430
H           1.80450736785167    2.03787906984522    2.12642348430195
N           1.70565286344776    0.65683356557103   -0.73800359988719
H           2.57799456951708    0.51851789784168   -1.23586425844723
H           1.16963356603918    1.47546251118262   -1.10729087377604
H           1.06844955086538   -0.18436269293893   -0.87256519566014
H           1.88016335140161    0.81546049322661    0.30201247504173
