    23
        -45.36509336  Gyration_radius:  2.55934004256 Dipole_moment: 3.521
 S          -1.08005611901120   -2.07509748171168    0.58522612187942
O           0.01427314680663   -2.30062084163775    1.53260443499065
O          -1.33571918843752   -0.64765228309934    0.41518792006190
O          -0.88824153111285   -2.77859808470792   -0.65827168919599
O          -2.39073587818242   -2.66844877513800    1.26162277536644
H          -2.32929388498335   -3.60733311301573    1.10783929745172
H           0.45437175037510   -1.52022703140978   -1.63893446625790
O           0.58391367667332   -0.60855211205786   -1.34717052465854
H          -0.20448580009686   -0.47232212041222   -0.76998587933101
O           0.06618401565914    3.16679049693151   -0.41627592421984
H           0.62282504868111    3.93640155714133   -0.53640883288205
H           0.08103770742740    2.67630886582564   -1.26601566908801
O          -0.18218204327836    1.45781566612388    1.66712273313575
H          -0.15118007176652    2.15807818094144    0.98443129810058
H          -0.84977377160979    0.81884521262243    1.35414020883169
O           0.11428239264034    1.70935729338879   -2.69073103791944
H           0.38923226670053    0.84660614234348   -2.32505375353097
H          -0.77485900863071    1.58420467097833   -3.02778724028064
N           1.62051055107562   -0.32720021386246    1.16109703672409
H           1.00071321366096    0.51101982392145    1.45866289739690
H           1.65700250893089   -0.33939051358654    0.12949879395564
H           2.53933525764545   -0.32420324530210    1.58860906033969
H           1.04284577088625   -1.19578208425789    1.43059242912610
