    23
        -45.38060744  Gyration_radius:  2.25784262973 Dipole_moment: 4.771
 S           1.32826504267817    1.00644352632265   -0.91674825329414
O           1.77425392954054    0.52208608054738    0.37385246388962
O           0.64742657565354    2.27823954604311   -0.88692205316614
O           2.62982996786638    1.23725082249513   -1.79466404613749
O           0.54928260355127   -0.02266385745565   -1.61944941213479
H          -1.01069869503265   -0.19557146131343   -1.29929485201425
H           2.44005690555426    2.08771928685585   -2.17520594524583
O          -1.94541749264731   -0.38287593912583   -1.01715254193886
H          -2.43253526569010   -0.56362358728070   -1.82229507878332
O           1.40608406089881   -2.06893983517658   -0.22538098231937
H           1.99601145883498   -1.49614507099124    0.28387895019113
H           1.12074460823602   -1.46970145178878   -0.94896966433436
O          -0.08876199616526    0.44715715684155    2.26748414439150
H          -0.70724087548812    1.10483547620172    1.86510227960244
H           0.73320837729076    0.55584249785949    1.74466626034125
O          -1.53605485676630    1.90940820934452    0.61341797227077
H          -0.77611627577173    2.22221857154976    0.08343301399284
H          -1.97656985437000    1.25189768831591    0.05977345587396
N          -0.85351285380289   -1.71677258717282    1.09501054775201
H           0.04556659031902   -2.02821321030516    0.61689173280475
H          -0.57847761674954   -0.85062839477661    1.70728668986616
H          -1.48879354439399   -1.36977563649618    0.35441476001876
H          -1.27655078354752   -2.45818781049477    1.64087053836622
