    23
        -45.37469689  Gyration_radius:  2.41405142002 Dipole_moment: 2.690
 S           0.00450907410052    0.77292707993917    1.90594619261503
O          -0.15317586339745    2.05546040464039    1.23313472789304
O          -1.12981504649042   -0.10881080537368    1.72750789937587
O           1.27043447645579    0.13975116958604    1.55189005806042
O           0.07332626317755    1.08853448607404    3.45986714794212
H           0.77184033616853    1.73160519935829    3.53665034270750
H           0.84343630099634   -1.27707396288840    0.80810954535603
O           0.28705170225802   -1.92854973867075    0.31794333666689
H          -0.52686224617977   -1.93559608251758    0.83678175063526
O           0.42115614256793   -2.60739996606521   -2.48052722818388
H           0.51071024495020   -2.69048421308252   -1.52166856954110
H           0.72908402243082   -3.43256968695689   -2.85656501195423
O           1.53524626134223    1.65497029955492   -0.73218076831333
H           2.12588764640829    1.09125181179373   -0.21962144776641
H           0.92230566427364    2.00937775530870   -0.04839471899972
O          -2.27058893378429    1.14727359620006   -0.28672621523582
H          -2.08536186075880    0.60864223008896    0.51252186627604
H          -1.88665609533274    2.00247627229368   -0.05952750934165
N          -0.29705593053790   -0.06248217229711   -1.56907994965480
H          -0.10856203457765   -0.84488306604814   -0.89400980941505
H          -0.33106871048548   -0.45979394949672   -2.50506622443974
H          -1.19425867065993    0.40880051396138   -1.26723709885358
H           0.48841726706915    0.63657283459889   -1.44974827584247
