    23
        -45.35901373  Gyration_radius:  2.32492489273 Dipole_moment: 6.612
 S           0.52782654228238   -1.43528034313644   -1.85778573535711
O          -0.19314612914528   -0.18437023208861   -2.01231124864127
O           1.12364709297542   -1.96654400163944   -3.02424012241437
O           1.59067885233925   -1.18859028222895   -0.73778471996559
O          -0.39090435811597   -2.48008682596667   -1.21409094722549
H          -0.74404876977156   -2.11786229714717   -0.32681461287988
H           1.67053350777729   -0.17884744575410   -0.64060178697613
O           1.53944829900980    1.34233041916468   -0.54207090049377
H           1.02700128624442    1.41735858353682   -1.35555390274190
O          -1.18887069140950   -1.40185297640413    0.94501362396753
H          -0.39403222226538   -1.12986495942843    1.44276700149028
H          -1.61616792720183   -0.59111910731587    0.60629697183175
O          -2.13026351537275    0.70203437855482   -0.48232611956883
H          -2.96686918804694    0.57349937773189   -0.93233588273974
H          -1.43180789114965    0.43452501456063   -1.12550052584936
O           1.25326649879903   -0.68234127167726    1.97555415213688
H           1.62549526109266    0.19328140698119    1.83957582888085
H           1.67580890463295   -1.25145446359095    1.32099932941151
N          -0.24750898329458    2.01705652637700    1.34114057317965
H          -0.26670356019854    3.00772018300479    1.54767951154523
H          -0.28467027793124    1.51605637990431    2.22071673830035
H          -1.09239544759011    1.79083864276270    0.82288388689345
H           0.91368271633987    1.61351328379371    0.18878887721252
