    23
        -45.35545892  Gyration_radius:  2.42350244444 Dipole_moment: 5.682
 S          -1.90328700545362    1.00665607626918   -1.25610897028529
O          -1.95387612086248    1.69358852491222    0.00800346399256
O          -2.56155214595274    1.59157164599963   -2.36176508611167
O          -0.38731778436345    0.77227511197969   -1.59202252178262
O          -2.41940577525939   -0.44379013561086   -1.07238873797145
H          -1.91032838583870   -0.87419458401510   -0.32837554732517
H           0.17540736789240    1.16001674153359   -0.86272131098168
O          -0.96922776726607   -1.62581676373743    0.72382659127127
H          -1.30978764795441   -2.50712710826545    0.88577447150851
O           1.00577628124356    1.77059007605010    0.37001199883895
H           0.46963490280143    1.38522796411786    1.12764072764071
H           0.81460806365238    2.71073999567597    0.36671010435585
O          -0.62345943101293    0.74100337040710    2.10661693685566
H          -1.32881889768725    1.17419921349296    1.59005174595047
H          -0.69443982414639   -0.19774058019624    1.87503476632183
O           3.01166218048897   -0.15748439347313    0.54530407152756
H           2.46298972874237    0.62827789283450    0.40038246197572
H           3.15808887214266   -0.21311980652245    1.49114921919803
N           1.06909717743806   -1.76635845579133   -0.86198784878318
H           0.78743883624269   -1.12961108789686   -1.60001731799673
H           1.35972668047209   -2.63744928124883   -1.28672280112292
H           1.87956844334854   -1.35042540975445   -0.40109007118042
H          -0.13249774866919   -1.73102901676422    0.13269365410318
