    23
        -45.38014069  Gyration_radius:  2.28531697893 Dipole_moment: 4.823
 S           0.66738274041995    1.70495012121714    0.42742459082376
O          -0.41790757744095    1.41867321212976    1.34378583446947
O           1.64473734211567    0.62390912984264    0.34381331400369
O           0.19414378004327    2.10798753115742   -0.88476630896215
O           1.45662069833949    2.93348347314571    1.03532849131431
H           0.76113121478309    3.56358205583142    1.19257991363908
H          -0.52902790255644    1.05446869480337   -1.82390633783582
O          -0.94377595382123    0.31875340486530   -2.35117984466423
H          -1.21249932761568    0.70789447445650   -3.18452267576009
O          -0.57319522159674   -2.41024579135121    0.70510233001626
H          -1.34091357021541   -1.80330236257600    0.58424331263001
H          -0.09038930510044   -2.03432297245395    1.47814788242080
O          -2.11653636609361   -0.31631335788374    0.17110723137187
H          -2.00484623995470   -0.11085200566713   -0.76545996219302
H          -1.61612475338279    0.36804807953325    0.65525920783256
O           0.72712311476062   -0.82849570692215    2.42165200366839
H           0.04231788251439   -0.17249800425395    2.59988570270023
H           1.30248956573372   -0.37761777449705    1.78071941601584
N           0.82839650960047   -1.36628361389758   -1.17543288992260
H           1.28678606471771   -0.58445833468988   -0.63697544386130
H           0.16447902467017   -0.92239582695684   -1.83461096792000
H           1.51437419468491   -1.93645309288739   -1.65672368091629
H           0.25523409539282   -1.93851134294105   -0.42547111887780
