    23
        -45.37852523  Gyration_radius:  2.32369646338 Dipole_moment: 3.012
 S           1.59771569470498   -0.87888812719582    0.63640843594768
O           2.26142246027405   -0.53830487959847   -0.61197990776298
O           1.15375717586427    0.31163552991777    1.34889610757580
O           0.53354200212864   -1.84740789983115    0.47104950390668
O           2.70030787490883   -1.56776193979539    1.53857545422731
H           3.45104888100523   -1.00255254209218    1.38829507839923
H           1.29941416724125   -0.06916094123996   -1.78536052585888
O           0.63623310136987    0.23719714542678   -2.46200319458760
H           1.10022243351083    0.24755996364646   -3.30037070709256
O           0.02830719375464    2.08058994393866   -0.36395062619837
H           0.52615130179933    1.56115487902848    0.29505624372473
H           0.27286018473803    1.71381610155308   -1.22279452640487
O          -2.34045738411902    1.03314170478931    0.24698221526550
H          -2.13348391996814    0.74071970888568    1.16201461925494
H          -1.60030319127356    1.64234867973319    0.01662376175183
O          -1.22751204869335    0.17562424343268    2.51897821231878
H          -0.32939358790218    0.13274344072633    2.12577648409592
H          -1.15044012521326    0.74500196362806    3.28630767736735
N          -1.37573859906209   -0.96150999378794   -1.07623770242035
H          -0.68799169674859   -1.40414814219270   -0.40190716020808
H          -2.02313490819166   -1.65222592355114   -1.43879019755805
H          -1.89147524719102   -0.15632443765306   -0.54324428366726
H          -0.80105174293873   -0.54324847776317   -1.82832494207384
