    23
        -45.36434061  Gyration_radius:  2.55462240047 Dipole_moment: 6.878
 S           2.06762634297190    1.08109315975192   -1.40018323844166
O           2.68394211962006    0.16757176320261   -0.44018193058273
O           2.92680867987776    2.09568083465976   -1.91458039600935
O           1.69182051798525    0.14317429758024   -2.67443193139684
O           0.75894770766418    1.52625361350566   -0.91936222903477
H          -0.16367210903647    0.27510402081659   -1.25095847143455
H           2.43500202854150    0.31738632962678   -3.24236763027645
O          -0.68221759453396   -0.56862477982645   -1.34346015680661
H          -0.42910912097155   -0.91314786179287   -2.20176745422727
O          -1.44793455200431   -1.81182637631640    2.21376587727709
H          -1.97032479275940   -1.95862782054313    3.00268610851336
H          -1.94313719173638   -1.17542146010367    1.67640600710528
O          -0.40690270284517    1.48902169545349    1.51727262474885
H          -1.31576301833803    1.25094118241340    1.28141557675267
H           0.00895029589637    1.79843531863646    0.69122709284814
O          -2.60669284995047    0.07966880748573    0.44820596931107
H          -3.45529356322773    0.30510682206534    0.06516466876915
H          -2.02271021553640   -0.17503021876084   -0.29221946911874
N           0.78651128525704   -0.81320567146067    0.97671138248526
H           0.93845479029282   -1.53526455485018    1.67355757080142
H           1.67317327083226   -0.47380239879583    0.46926347123663
H           0.13634669506891   -1.14697371805646    0.25117900927527
H           0.33617397692678    0.04248701530899    1.41265756820530
