    23
        -45.36448460  Gyration_radius:  2.31689009934 Dipole_moment: 5.998
 S          -0.76080486468018   -1.37083859912147   -1.52675798891038
O          -0.29061484840919   -0.40346727884053   -2.48882785865019
O          -1.37989151852081   -2.54842139744644   -2.00414516739071
O           0.43036571781959   -1.77316742830811   -0.61107671610746
O          -1.73468479545395   -0.66024125016548   -0.54674162390802
H          -1.48777647011826    0.31268629621388   -0.39118806600781
H           1.09566599203314   -1.01502359933150   -0.48119601190551
O           0.54339047251796    0.89550002861763    2.05243724955304
H           0.73904745401618    1.21064658093755    2.93537458699385
O           0.88214241124154    1.84449643329312   -1.98502643133827
H           1.10623679315769    2.33528500449860   -2.77666367087294
H           0.44164372694601    1.00970556772431   -2.28928112168403
O           2.00359684191578    0.18260825256173   -0.13863624519388
H           1.81874228052975    0.87097190448061   -0.80149425864420
H           1.64388116603938    0.50752238257981    0.70735356967527
O          -1.01066952201148    1.73565865216366   -0.02609893702457
H          -0.38342414510660    2.00540353127829   -0.71963797473885
H          -0.48729253264591    1.60448682392371    0.78592565218980
N          -0.68588941243118   -1.45193514673905    2.11172022634913
H           0.08334987010338    0.00779895959958    2.15043093710020
H          -0.86596967853714   -2.01525487737482    2.93368152966698
H          -1.57060512323794   -1.28049618245378    1.64499448673907
H          -0.13043981511789   -2.00392466787236    1.46485383414637
