    23
        -45.38002648  Gyration_radius:  2.29646408063 Dipole_moment: 2.952
 S          -0.26332818495318   -1.89691083100511    0.24363801050525
O           0.29096449040476   -1.66773786668958   -1.07533738265114
O           0.35886631308421   -1.06303108134694    1.26316438936919
O          -1.71221823709052   -1.80748451261685    0.26201335837813
O           0.11402383047344   -3.38719963236141    0.63105389219690
H          -0.17408623262472   -3.84955022458173   -0.14825046930076
H          -2.21516108796121   -0.36536101058015   -0.14984505852874
O          -2.46116960023302    0.56844926839890   -0.39554052851638
H          -3.41476008692151    0.57013376560955   -0.49203093258872
O          -0.29281493874728    0.68081488258381   -2.08833093836869
H          -0.02155771680757   -0.24094605562248   -1.86652158535795
H          -1.17682761355002    0.76895801584812   -1.69268716704093
O           2.70038657568887   -0.09076968387213    0.62201864445588
H           1.86518190320740   -0.58724488939731    0.79890469005429
H           3.17973739216736   -0.08721511335911    1.45237379611453
O          -0.67206894105106    1.39119519609215    1.50988473305542
H          -1.46579749082788    1.28624452162510    0.95694640520618
H          -0.34210813562317    0.47654476054973    1.63178586929134
N           1.16292155175729    1.89507242245506   -0.29883031601056
H           0.64552259638960    1.47543527557282   -1.14375163829575
H           1.92287591467589    1.22756325590962   -0.02587419656047
H           1.52096210503553    2.82330988228496   -0.48946815464759
H           0.45045558354555    1.87972965447337    0.49468459922131
