    23
        -45.36764303  Gyration_radius:  2.56300030905 Dipole_moment: 3.545
 S           2.28349818480207   -0.02664966519282   -1.38023243400262
O           1.32421355371686    0.85082327214779   -2.04572937854950
O           3.37675680278885   -0.45791827297138   -2.18676859249287
O           2.93349071160872    0.88617744558700   -0.20637662268740
O           1.58855632317838   -1.08012639090629   -0.63396891420249
H           1.24262692294471   -0.43941345369813    0.84554190695891
H           3.75077287617078    1.14124355224997   -0.62085020471680
O           0.88670684507091    0.12606864080899    1.57254528813395
H           1.61259788774854    0.70747807479140    1.80781883377227
O          -0.91531534285112   -1.88259637401052   -0.77442275249692
H           0.05635728144546   -1.72147295452789   -0.73265174794137
H          -1.05144231250099   -2.53210678327355   -1.46480494965889
O          -2.95679951602621    1.36558997010128    0.86205146827595
H          -3.76840053158355    1.59251127114634    1.31534286186736
H          -2.63540904316875    0.53690483061936    1.27411344640120
O          -1.75524113763513   -0.92309187170967    1.76749344347676
H          -1.61961757631992   -1.50474346438850    1.00710703668021
H          -0.86945706335080   -0.67513954547898    2.06089296263433
N          -0.71519813987006    0.83804927936523   -0.50457645101343
H          -1.11467047166550   -0.09471643674543   -0.70410692483123
H           0.05809041796923    1.00295088784958   -1.22900584235383
H          -1.46942519105791    1.52515011902410   -0.45116338172801
H          -0.24269148146779    0.76502784915570    0.42175095846547
