    23
        -45.37380383  Gyration_radius:  2.31950708876 Dipole_moment: 1.889
 S           0.17358234095589    1.20634342902784   -1.64782844054099
O           0.91353159964961   -0.00051033072658   -1.30295663290468
O           0.94223878855577    2.41683387259075   -1.61934693522352
O          -0.27086692436247    0.98971600014933   -3.16635450192471
O          -1.07326911555974    1.27759326118568   -0.88034473635900
H          -1.66185381157314    0.06156160122829   -0.02118343430847
H          -0.21003537494192    1.86794081170115   -3.52980250284590
O          -2.00786153719786   -0.67279145221192    0.55204950691121
H          -2.95859955413018   -0.55541098118682    0.57689771218330
O          -0.31621661145818   -2.42638469730232   -0.75155218488480
H           0.02942892817884   -1.71401206228019   -1.31482576775121
H          -1.09714486372144   -2.03839105492448   -0.32232006889384
O          -0.21816164999052   -0.20122198834005    2.58327710784158
H          -1.00215207512338   -0.38856619952645    2.03214707463577
H           0.04463708283151    0.70456557813692    2.34858993219854
O           0.62752060787032    1.87897492092188    1.07466972095641
H           1.25979745957215    2.44944378509737    0.63009950615859
H          -0.07882283868550    1.76547100937840    0.41532772340065
N           1.41805593197594   -1.33927558326254    0.89580500393239
H           0.84413236957839   -2.09045248615708    0.43079587288733
H           1.44716673786913   -0.60918152672345    0.14095222273957
H           0.85055177340641   -0.93370965914617    1.71076904729383
H           2.34434074633121   -1.64853627759015    1.16513477450189
