    23
        -45.37126175  Gyration_radius:  2.37069134414 Dipole_moment: 7.038
 S           0.89672479566366    1.19780113960320   -0.93013375956946
O           1.57083473794350    0.52974467485621    0.19371774575740
O           0.82984929202736    2.61912621186668   -0.79182518618207
O           1.72679268528361    0.85176047833813   -2.20890350768913
O          -0.43231336366278    0.57624020980931   -1.13169618394186
H          -0.74785698528756   -0.90341250744470   -0.94959896711666
H           1.75418515647119   -0.12701285834718   -2.21572052286213
O          -0.89531911171637   -1.88787739421573   -0.78088488510972
H          -1.78520492915452   -2.07262394485148   -1.08541558554121
O           1.45781224922036   -1.82178153039554   -2.25682623155786
H           1.23642983641533   -2.03069699499221   -3.16692381006605
H           0.66570393237915   -2.00813284857019   -1.72273227150771
O          -1.30127415418612    0.78972487728693    2.80213134559073
H          -0.85619058226038    1.34509618965659    3.44440722732787
H          -1.46043050272714    1.37252270920620    2.01190370174664
O          -1.46012214762766    2.26296027510164    0.62858310880953
H          -1.37288636179801    1.60448487933951   -0.08440316404687
H          -0.72074253126450    2.85632440567292    0.43417546967854
N           0.17190351097357   -1.06154517535271    1.58767362919084
H          -0.36422410807458   -1.59614889176926    0.88423510556751
H           0.82605340196313   -0.39337942120804    1.00789804975434
H          -0.45844581148950   -0.42885921918780    2.14883497514477
H           0.71872098092074   -1.67431527442121    2.18150371666043
