    23
        -45.35659675  Gyration_radius:  2.40443385612 Dipole_moment: 6.694
 S          -1.43510537569859    1.26436270602663   -1.64159178066844
O          -0.20961285665100    1.17211134013322   -2.38807478463080
O          -2.64400966442003    1.43878480029358   -2.35182734821270
O          -1.53135209384590   -0.01630664178431   -0.73684550146761
O          -1.30603087729090    2.38639160088359   -0.57856912999368
H          -0.47322651034284    2.22909745693202   -0.05544680262468
H          -0.73877470045357   -0.62037754486150   -0.86150782354215
O           0.42404280958494   -1.70502871324071   -0.86961223696330
H           0.14600753271372   -2.44495098440988   -1.41154957792258
O           2.02191597856391    0.54490216324945   -1.11962045698627
H           1.37095177991268    0.85503411144763   -1.78224036116316
H           1.80293150212761   -0.39038280865795   -1.00611203004216
O           0.86582051011499    1.87469025259536    0.76647458209346
H           1.40438867982850    1.34448120047325    0.10041747550012
H           1.36844768865877    2.67041938206591    0.94982648539228
O          -0.92959942756282    0.11692833344655    2.06117629817116
H          -0.25970089291217    0.78349990272582    1.85814561387765
H          -1.50800874417294    0.09496885137560    1.28977091765606
N           0.33979926139671   -2.38606730428326    1.64833060278374
H           0.42059802210596   -2.02129035498299    0.09930443474375
H           1.22745384754210   -2.46851631983520    2.12735375123695
H          -0.12704222418481   -1.54125172898848    1.99521802158548
H          -0.22989423502472   -3.18149970062364    1.90697966115253
