    23
        -45.37179441  Gyration_radius:  2.29667510713 Dipole_moment: 4.788
 S          -0.44479040285512    1.96660704004668    0.02816408297219
O           0.25322342156537    1.12562888152922    1.00761008293830
O          -1.60958076707808    2.61281451186771    0.56224583553300
O           0.58919639141304    3.12288810991402   -0.35378681612303
O          -0.67698261429128    1.22697207829892   -1.20122199780686
H          -0.01009803087548   -0.01972744895888   -1.82144983675556
H           0.30159381211080    3.86231288033929    0.17328761442926
O           0.35887728348673   -0.88887847395244   -2.15912140078425
H           0.11968394354329   -0.92743159092986   -3.08612069716628
O           2.34214023470518    0.00890591346621   -0.29346367883538
H           1.69012642936149    0.62791742492909    0.08454008633004
H           1.96002950946579   -0.29688329089018   -1.12473533647907
O           1.34008917958493   -1.47218724417654    1.65021869747734
H           1.94876539784679   -1.07942334547816    0.97708790070350
H           0.97228947924691   -0.69441434001482    2.08659928232023
O          -2.08256744408433   -0.08576740585431    1.12450852639176
H          -1.24644010868374    0.40383227078761    1.26380947766768
H          -2.67720162911508    0.59049040371724    0.78733085649517
N          -0.64198702413400   -2.04694203297503    0.04636874472907
H          -1.37143097801553   -1.36061133288689    0.36566497785285
H           0.17874935980069   -1.93140341624038    0.73837954286136
H          -0.99836375197898   -2.99592801529915    0.03933800908588
H          -0.29532169102623   -1.74877158724455   -0.89525394383397
