    23
        -45.36526891  Gyration_radius:  2.42103343184 Dipole_moment: 8.047
 S           2.15708559413931    0.15021906282038    1.19568309367798
O           0.93122218588134    0.90651447033008    1.48719796686254
O           3.32253072456655    0.64549809323851    1.85285485461874
O           1.88312294493674   -1.31204688807825    1.81739714504130
O           2.26781551753226   -0.08923648015267   -0.23476461229977
H           1.20926132771222   -1.08955615809655   -0.63131240032950
H           2.30637026140264   -1.22637942519537    2.66434736446165
O           0.46957044545698   -1.68876397103635   -0.97336884118460
H           0.91534154926751   -2.41274298080650   -1.41475638437942
O          -2.99680317938213    0.07823688577123   -0.21648444750379
H          -3.69190478126820   -0.58044740960307   -0.19937889410578
H          -2.32912913615688   -0.21104314342775    0.46707319004065
O           0.13905354779724    2.38401150912577   -0.46819728608498
H          -0.50344851914154    2.94925802199315   -0.03335048880536
H           0.55552899262033    1.85337076951749    0.26443133321326
O          -1.04937383526537   -0.82899650300088    1.27035741898254
H          -0.36878869413272   -0.15225498329641    1.47765824906963
H          -0.58514614316364   -1.46635835199635    0.71282029103580
N          -0.93240552109847    0.41598699771142   -1.84011298925289
H          -1.01771317535201    0.57776714247150   -2.83692680897935
H          -0.45442320101206    1.24324796988574   -1.35724384761727
H          -1.86584471783165    0.29629180559712   -1.36931262512737
H          -0.36192220750558   -0.44257642376482   -1.63461130132824
