    23
        -45.37876346  Gyration_radius:  2.39238574378 Dipole_moment: 5.192
 S          -0.01591882409909   -0.54727393292470    0.74692211712995
O           0.56514375386174   -0.77926849659753   -0.58788314319801
O          -1.46307548763399   -0.58288676815985    0.70630900323827
O           0.47433209409379   -1.68464644047341    1.67218993699283
O           0.46553340718843    0.72631730616067    1.28618110364965
H          -0.55431976221274    1.81997297748359    0.58057101652927
H           1.42735883808496   -1.84006014895704    1.39447026257853
O          -1.28434900756958    2.24978095967744    0.07372588845179
H          -2.08078575499483    1.96473308511772    0.52942005408828
O          -2.96709437774680   -1.03527669362158   -1.39487455726490
H          -2.43689940123596   -1.03056468168029   -0.56244791763979
H          -3.88469117756656   -0.97692105208460   -1.12448429207549
O           2.80734634703590   -1.73158594155179    0.60803730955711
H           3.15642776665383   -0.86895565832890    0.92027767137891
H           2.32020719892800   -1.52514380912774   -0.20276241087260
O           3.10317419198645    0.78767698341082    1.47672989508449
H           2.12807897659941    0.87015475046062    1.38751777072629
H           3.30122432963931    0.98650634230282    2.39343048014184
N          -1.01565133817202    0.65851366721014   -2.02394268621093
H          -0.72693039821768    0.99266359628953   -2.93661508793078
H          -1.88117775887823    0.07557137248523   -2.05826183997749
H          -0.27390730671898    0.03168221730578   -1.56204486913035
H          -1.16402630902713    1.43901037561218   -1.32246572526315
