    23
        -45.36659686  Gyration_radius:  2.46169847564 Dipole_moment: 5.764
 S           2.05162284603151   -0.34433570411725   -1.13461788085548
O           2.43541714188076   -0.44322553922540    0.26658875131487
O           3.07508472524361   -0.61250307999652   -2.09022959241500
O           0.97317928737787   -1.56452211809772   -1.34140007798188
O           1.24648569312400    0.85050121833344   -1.37269778900955
H          -0.36154647446871    0.87037242751684   -1.67451288109580
H           1.54845422265740   -2.18705952097937   -1.77326390061072
O          -1.34618631472135    0.90559829184122   -1.75067065924079
H          -1.54040649682626    0.84402552417472   -2.68655936361980
O          -1.45821694252285   -1.16447953074143   -0.05637910703305
H          -0.73195129467960   -1.62796369208693   -0.49721792561305
H          -1.68128943585114   -0.43129558208680   -0.66815252219606
O          -1.63136810353029   -1.21778591226461    2.82508793435854
H          -2.23348757967810   -1.73855670588053    3.35723550661794
H          -1.84245244834060   -1.40700831396209    1.90137512794702
O           0.11224536598307    2.69598366891803    0.22108634649273
H          -0.73289236382295    2.72822826756593   -0.23764705208090
H           0.72290469580073    2.26755362250721   -0.40850333254524
N           0.27898288319486    0.32254445688411    1.44981859796545
H           1.22916184927486    0.00179041361338    1.07326113861255
H           0.17262848274985    0.14649265491959    2.44632459379256
H           0.16600791196358    1.33462397582522    1.20304880121165
H          -0.45237766087102   -0.22897882262381    0.94802530596536
