    23
        -45.37363689  Gyration_radius:  2.27582032438 Dipole_moment: 5.469
 S           1.15560819454959   -0.64128469782155   -1.58409302334984
O           1.79434680671603   -0.58392030293914   -0.27975934017441
O           2.03103428052781   -0.78009791677856   -2.70137339481133
O           0.27172713526966   -1.99979679621856   -1.57201881931480
O           0.15589629224771    0.42781412224688   -1.71309097471003
H          -1.20526454012212    0.50739313997114   -0.92436191447451
H           0.71701335888361   -2.45497161044389   -2.27828757949081
O          -2.03038273376911    0.62310325364965   -0.37282050240589
H          -2.69211534130279    0.97959699233193   -0.96694972291555
O           0.49754852055708   -0.91106625588248    1.99078129909964
H           1.11369385000656   -0.89659019651442    1.22303947432830
H          -0.26288973192531   -1.45123413115274    1.67856242439132
O          -1.52421666567385   -1.95171128364767    0.58540106139560
H          -0.97670732669879   -2.21181204962300   -0.16694243091154
H          -1.95223119646707   -1.12572875745003    0.31350931837490
O           1.49979436505844    2.09300709668250   -0.17769685685864
H           0.98858570077897    1.70325151169350   -0.91702664061106
H           2.14743697914454    1.39951832032327    0.00959627359476
N          -0.36248805607438    1.48471385538449    1.59616948201995
H          -1.18939375195556    1.32482424322122    0.99338258062503
H           0.40415453281507    1.88410079823599    0.97633775391621
H          -0.57399814912305    2.08555031290823    2.38395943631508
H          -0.00715253338668    0.49534034177873    1.90368209592401
