    23
        -45.34917511  Gyration_radius:  2.36697340358 Dipole_moment: 7.528
 S          -1.59464477562424   -1.66317289045952    0.15065356161650
O          -1.02355009805878   -1.21725357555003    1.38734436278534
O          -2.49362889725456   -2.75492782839857    0.18055968532417
O          -2.23386088125829   -0.42617820459648   -0.56711817662166
O          -0.43094527869624   -2.00366399616959   -0.84095760740630
H          -0.11135893383365   -1.14175641839010   -1.22342773153772
H          -2.17788251233973    0.36770415325428    0.03715776081774
O           0.61930663269819    2.02160524261169    0.09061801456284
H           1.25832628079132    2.73495317451256    0.08721061338566
O          -1.97243472093776    1.78868153197466    0.74366538851021
H          -2.45807983836432    2.49469904471573    0.31222088354077
H          -1.01742560315803    1.96195215835897    0.60116936948711
O           0.29935917138280    0.27455129676117   -1.88767942459844
H           0.44500271157669    0.95734755807502   -1.18790143810917
H          -0.52228069947648    0.50542974058668   -2.32700954647753
O           2.43950375039109   -1.49499594158322   -0.72141471573918
H           2.16598104348028   -0.90445140664382   -1.42951820837998
H           1.76592072555608   -2.18121563400260   -0.67992997614507
N           1.46650588291722    0.09291665693201    1.52257868428148
H           1.00121956971433    1.28081420921793    0.73145073098949
H           0.59507450893312   -0.42051354252752    1.67008052155137
H           2.06103331372288   -0.48736072649408    0.93174472758917
H           1.91885862782981    0.21483537779873    2.41850253059291
