    23
        -45.36580029  Gyration_radius:  2.45099810846 Dipole_moment: 5.545
 S           1.66295937347926   -0.17170209572837    0.29686562448711
O           1.75498476873305    1.00138997060299   -0.55803740714618
O           2.91048027171438   -0.76525536409279    0.66397625452863
O           0.99289283379203    0.40650831238463    1.67086779929275
O           0.63724625150886   -1.09686024585051   -0.18708929327127
H          -0.09924782429937   -0.16210083145696   -1.27059258599384
H           1.71047472182031    1.01082636186312    1.95967369640404
O          -0.61856729833851    0.53571229842347   -1.75342325204481
H           0.06357654124359    1.17967296871464   -1.97338552330151
O          -1.84400300326978   -1.82049263872139    0.55293893968489
H          -2.22791055433598   -1.88855380801513   -0.34639028511420
H          -0.87870308179825   -1.87694738221143    0.41587030238189
O          -2.45299846158623   -1.53427553680653   -2.07310784978733
H          -1.91306913232059   -0.73667660978793   -2.18375687030214
H          -2.06293582654588   -2.20533476297478   -2.63610596983435
O           3.20369641208542    1.80146859055689    1.55537637580517
H           2.88287309416005    1.88234460405238    0.64146432260821
H           3.72398778948317    0.98773887432635    1.54468461646498
N          -1.51517281356986    0.72951544617491    0.75272850834243
H          -2.18549375842791    1.36864404852375    1.16559813976384
H          -0.59152367280388    0.75283308285383    1.23608782329375
H          -1.82323015193253   -0.31645465499404    0.78910730475076
H          -1.33031645878342    0.91799936215106   -0.26335064101726
