    23
        -45.36680806  Gyration_radius:  2.24439355126 Dipole_moment: 8.658
 S           0.34641644419758    0.83169209105701   -1.87583630770987
O          -0.42083252228646    2.05281128095679   -1.89131374320604
O           1.41138299149685    0.70216197050105   -2.82110385412593
O           1.06752842296856    0.83737314923915   -0.40922793886157
O          -0.49620272074584   -0.37078346949183   -1.79892963442550
H          -1.42717276872301   -0.77780821006530   -0.62913784623422
H           1.31859973208446    1.74544538459915   -0.26846023347152
O          -1.91892367480176   -1.10097634999188    0.18288055678376
H          -2.53702364474559   -1.76005518642305   -0.13643565241058
O           1.64309080340934   -1.69308413340982   -1.13147460263791
H           2.33373256622077   -1.13830155891468   -1.50497195427290
H           0.82686056814022   -1.33175107882718   -1.54276649962727
O           0.32776065383306    1.13493587494299    2.30247968899503
H          -0.10636279742813    1.29025161774206    3.14290510039378
H          -0.30317307565546    1.46304457720467    1.60718865180374
O          -1.50584361442219    1.75776666925724    0.50782564178456
H          -1.97770419480074    0.92104160564669    0.42464494456448
H          -1.17473425909174    1.96707713335122   -0.39337677624309
N           0.53231660513791   -1.32452719780563    1.26924483984937
H           1.11779618925115   -1.40311902495303    0.38654439644877
H           0.78245012429690   -2.04390906074193    1.93923769717953
H           0.62671856267104   -0.35536453778835    1.67743072865161
H          -0.46668039097767   -1.40392155613287    0.96265279673154
