    23
        -45.36932637  Gyration_radius:  2.2536440572 Dipole_moment: 10.093
 S          -0.54421955110181   -1.06163353896539    1.74722369064705
O           0.57428648666690   -0.10679839230251    1.82682922660336
O          -0.56024786529108   -2.04840046849439    2.76743323326576
O          -1.85431704142681   -0.18432698836098    1.87084146505684
O          -0.59094105389327   -1.63276129816365    0.38051921977752
H          -0.88406014440954   -0.91466633672362   -0.87745443490923
H          -1.76556828297568    0.52120371746128    1.20890495987841
O          -1.04341478270715   -0.40167677278209   -1.75110521612103
H          -1.58191640972962   -0.98395147965082   -2.28853232635412
O           2.06958800291300   -1.59690908844203    0.31880467419651
H           1.78400819597452   -1.03782025160225    1.07703313437792
H           1.28934072126082   -2.15840689410798    0.19495256934548
O          -1.83655297676317    1.62757982443996   -0.18939405729976
H          -2.76128986146712    1.86357209936233   -0.27961544080120
H          -1.63563961850855    0.95651916841168   -0.87723666633014
O           0.85630024990871    2.04261763807936    0.40252893024351
H           0.80692915919633    1.32565272969301    1.08664794843649
H          -0.06541046380532    2.27816063470938    0.23548257852024
N           1.56706669873800    0.30776660255484   -1.40715924150409
H           2.25987962689252    0.54856490888036   -2.10631631728633
H           1.36304003448503    1.12558572516068   -0.73401062436094
H           0.66203220728872    0.03553006664877   -1.82770742218781
H           1.89110664876407   -0.50540162576361   -0.77866987318069
