    23
        -45.38321580  Gyration_radius:  2.25836082666 Dipole_moment: 3.079
 S           0.62243225086832    1.15599351581737   -1.37926292224619
O          -0.79434276233224    0.81555851314902   -1.47696975748238
O           0.89228675704298    2.17085869768959   -0.39303389904342
O           1.43608634668575   -0.04594827836675   -1.21025728934412
O           1.03566272144673    1.76653381861828   -2.77886099560392
H           0.95559751396182    1.02457650798907   -3.36900583705705
H           1.65801922900819   -0.55107247282847    0.41673928296351
O           1.49239186529223   -0.82486523013113    1.34391250225552
H           1.23864331334058   -0.00760841813105    1.80568228639884
O          -1.92604566851638    0.49771920950724    0.91962507401627
H          -1.30191429755765    0.97431663148960    1.49294583088085
H          -1.65827066506959    0.73201796554636    0.00550170083839
O          -0.46892454834272   -1.77741825230965   -1.77531795511036
H           0.45414204427315   -1.47643956673017   -1.68272174485163
H          -0.93647754350325   -0.92445379349107   -1.85758239153139
O           0.33926975031686    1.57058973800517    2.05762668152078
H           0.55516026294224    2.30498983658094    2.63425140130724
H           0.57122793775273    1.86665503376092    1.13897796441057
N          -0.84968963336987   -1.89128975152316    0.84066842887854
H           0.13129343525931   -1.61975076553443    1.16157452416351
H          -1.22140215740114   -2.68839998171246    1.34300011092788
H          -1.44071388869545   -1.01082882373851    0.96474932361767
H          -0.78443223344708   -2.06173410368038   -0.20224234987290
