    23
        -45.36692929  Gyration_radius:  2.38580814395 Dipole_moment: 2.500
 S          -0.40994821664290    0.86855984226725    0.07967982839745
O          -0.96797159566060    0.64936108659477   -1.24197441554688
O          -1.21846388136895    0.37479983915353    1.15305206257908
O           0.98455426074801    0.24930473070961    0.12186952606474
O          -0.15903496967484    2.36279364351326    0.28828395865473
H           0.41275394440476    2.72406694516788   -0.47030644130195
H           0.91789664836031   -0.83742021173625    0.29122362384398
O           0.66227072984886   -2.15624153232354    0.50891927346627
H          -0.19574943845706   -2.26736368547370    0.03303990546239
O           1.25207268628382    0.72501954255921   -2.71112663673490
H           1.83726457650925    0.19070780564263   -2.16750314394480
H           0.35609193395328    0.59370748621165   -2.34288489277608
O           1.19458791743386    3.16127400654071   -1.72476207391661
H           0.62362608188125    3.67865845230847   -2.29754812858636
H           1.35493439153893    2.30088187876079   -2.19362943591471
O          -1.75186599690630   -1.83070716956938   -0.55478498755389
H          -1.59140885432574   -0.99813094261348   -1.03129023005213
H          -2.26130260315107   -1.57232942478798    0.21849461827185
N          -0.23972096688600   -1.66404806168899    2.94644032464103
H          -0.70266395172636   -0.84447663028130    2.55414618157666
H           0.42010505487321   -2.14049116439045    1.48093367335691
H           0.41997585115651   -1.34210099822893    3.64293471281347
H          -0.93800362200726   -2.22582545878660    3.41679270688408
