    23
        -45.36519169  Gyration_radius:  2.54349399476 Dipole_moment: 5.283
 S           2.19874433283479    1.32711452879166   -0.50780438302061
O           2.20628906445393    1.27810249482914    0.95544892731211
O           2.85138052152369    0.22019959612337   -1.14000947698530
O           0.82178972513391    1.51753466967414   -0.99621954465791
O           2.98689798255992    2.65029928289533   -0.89368541896848
H           2.62707043798338    3.31004884085118   -0.30688723844132
H           0.53560401248374   -0.04703658575793   -1.36842635673990
O           0.44956043308412   -1.03216515791165   -1.34280618966728
H           1.33337979757999   -1.32412999256232   -1.59063489732624
O          -2.23164290989136   -1.12785761543595   -0.92982564985333
H          -2.74898137064771   -1.48041660328632   -1.65509500276252
H          -1.29675386284113   -1.19399246254480   -1.19816940931212
O          -1.85931702897794   -2.02734719515272    1.72729974876926
H          -2.66895191758745   -2.35179949259951    2.12207253466724
H          -2.08875283317490   -1.74082229918612    0.82888493260049
O          -1.51852844837970    1.33815186766027    0.31627300500716
H          -0.76220855227247    1.62548287877207   -0.23351922748437
H          -2.02739306179935    0.72006937893192   -0.22616956216981
N           0.24663089721551   -0.35330299190468    1.32253917868932
H           0.05830624860344   -0.94346581744558    2.12922687486614
H           1.11494342316845    0.26369643600025    1.37596477476822
H           0.34093252451242   -0.93025241519080    0.46749764066622
H          -0.56899943556629    0.30188865447510    1.14404473008319
