    23
        -45.35376777  Gyration_radius:  2.47842922105 Dipole_moment: 4.986
 S           2.09872666950125   -0.77606985423369    0.61396956467671
O           0.71155436776169   -0.80968361114564    1.02856944925252
O           3.02794395072264   -1.44511509580302    1.44421033843450
O           2.17793934903701   -1.27764639077724   -0.85799188227679
O           2.52130567049875    0.69885653803392    0.44408928441958
H           1.78537635407911    1.15089758419831   -0.06964813311220
H           1.47872529580858   -1.95318329101472   -1.08740501809254
O           0.52633765331970    1.84799662603223   -0.71573652284741
H           0.74373457746199    2.75599888874484   -0.93349958489961
O          -3.19309605336345    0.41372466218671    0.49785434829895
H          -2.53971342001215    0.03212403843037   -0.11687239113508
H          -3.66298358474318   -0.32699479458770    0.88322098764778
O          -1.01510436531452   -0.51689512145113   -0.93027751830720
H          -0.47666517833286   -0.65878667380564   -0.11641309622330
H          -0.64977398285237    0.29410090025606   -1.30609723950569
O           0.23088565114528   -2.76686704066042   -1.69333864467836
H           0.31588831569603   -2.84676620740305   -2.64589473111903
H          -0.42952058969237   -2.06229279957306   -1.51909705638813
N          -0.78133942879209    1.69114181005204    1.51447691289151
H          -0.33874354773511    0.83346548564350    1.83340509846935
H          -0.03225298835392    1.87459919185673    0.14730581397897
H          -1.75911229080042    1.47481863310705    1.32471110848115
H          -0.74011242503216    2.37257652190764    2.26045891204927
