    23
        -45.35866610  Gyration_radius:  2.29741125571 Dipole_moment: 5.580
 S          -0.31986022395531    1.55520018149610   -1.43713421095551
O          -1.14581829376166    2.17109709589967   -0.43799372862069
O          -0.11045615545914    2.21289851219326   -2.67037699365569
O           1.07081205337950    1.24549606616840   -0.80437267344698
O          -0.88729824519873    0.13188686927935   -1.74349006949988
H          -1.23597446570811   -0.31248434980807   -0.90695104117110
H           1.01135816385156    1.12997175380857    0.19344428951772
O          -1.60748983666302   -1.19160120017893    0.33145158662567
H          -2.09681934597472   -1.95600059581906    0.02271543640367
O           1.54640179752010   -1.24405245791289   -2.06740967991320
H           2.13607684940821   -0.48577483581289   -2.05611173471396
H           0.67277264359589   -0.88280659762861   -2.26718423479855
O           0.96493652190999    0.96775816845858    1.75626812539934
H          -0.02139418010577    0.97419375395376    1.94813848690864
H           1.31595694299629    1.76765793182180    2.15235905837087
O          -1.61955022207376    1.06322667443626    1.93929309569156
H          -1.89590590839346    0.19566287359061    1.61271581166646
H          -1.65473478923887    1.64479929825292    1.15569160641157
N           0.86282413502640   -1.85014009496579    0.68345456129619
H          -0.64898001105277   -1.51420349918594    0.53870016913010
H           1.24621439278897   -1.78781495271026   -0.26205548903413
H           1.26998078723378   -1.10160347000946    1.23299371625683
H           1.14694738987592   -2.73336709532998    1.08585388213359
