    23
        -45.36892389  Gyration_radius:  2.37612636437 Dipole_moment: 5.178
 S          -0.17938578919189    1.36412716330877   -1.73500861418445
O           1.10264908956568    1.63741834975158   -1.09245112617639
O          -0.56109562375347    2.29620775533224   -2.74422585147231
O           0.01658028981413   -0.05555801800661   -2.47712590759911
O          -1.20129599161287    1.05956215232054   -0.73232608294742
H          -1.21092151766193   -0.50874160967980   -0.44501502997419
H           0.33930588796064    0.22730047416002   -3.32528205945562
O          -1.24517201681607   -1.47101215291434   -0.20003483844257
H          -1.89002813707823   -1.85641878855969   -0.79484116311126
O           1.25909506099866   -2.46541826945992   -0.37021434562569
H           1.22141975076992   -3.24196344231978    0.19104364873657
H           0.33325662365027   -2.15063805544034   -0.46505091621558
O          -0.37905485958079   -0.42461096952950    2.29144210289010
H          -0.75689054678869    0.48048016575171    2.28700839688277
H          -0.88872940507205   -0.92218696250138    1.63621245270729
O          -1.23904945563464    2.03870602463881    1.72035566552640
H          -1.20152374240337    1.78698035205973    0.77175287236119
H          -2.07497732568666    2.49045873538143    1.84237066849151
N           1.73298368728523   -0.05473381576403    0.74070368573720
H           1.46840620109424    0.68310762923983   -0.00012432863107
H           2.61033422590148    0.20008996029186    1.18023689891468
H           0.94881460153906   -0.13343072804476    1.45682538161223
H           1.79527900252018   -0.97972594006035    0.26374852007625
