    23
        -45.37226507  Gyration_radius:  2.3841728439 Dipole_moment: 5.889
 S           0.15645779415470    0.21550683287668   -1.97433675305370
O          -1.28384819595886    0.29602022549417   -1.94465835563885
O           0.80243468654957    1.41500374024012   -1.44410225604535
O           0.69464148072279   -0.98042503763680   -1.33854856033681
O           0.55140276943018    0.12523561457660   -3.50644834713489
H          -0.24913162177261    0.45519968565879   -3.89947585140028
H           1.59300421496150   -1.11105821996848    0.02069211648224
O           2.07161982783862   -1.09993369960073    0.88599277457069
H           2.97633432724662   -1.34602159459491    0.68848076931276
O          -2.36816734099508   -0.38099783955200    0.41400818785631
H          -1.96161335441032   -1.26250122429674    0.51901699244020
H          -2.10148424055193   -0.09414735280283   -0.48162546133657
O          -1.38968868752538    1.34318444673936    2.06019407258083
H          -1.93034844391706    2.12159735681183    1.91760968520321
H          -1.80592677257471    0.62677774548726    1.48627772352643
O          -0.70445860480433   -2.52967441440917    0.38960049049094
H          -0.04379191871772   -2.51924671197364    1.08665157492745
H          -0.27705077769330   -2.11448445268735   -0.38085289316202
N           1.06596583970490    1.38306109586446    1.12162355697688
H           1.63933096868952    2.13303477049845    1.49202898175424
H           1.51524828589662    0.45472801867391    1.27381046792047
H           0.09259650403199    1.39344370632770    1.55704323317424
H           0.95647324965976    1.47569728827428    0.05701783090504
