    23
        -45.35474864  Gyration_radius:  2.46546429556 Dipole_moment: 4.725
 S          -0.65074057886819   -0.38726338882043   -2.18766987671797
O          -0.72204221598195    0.57366986817561   -1.10214287256522
O          -1.36217824461246   -0.04405244671732   -3.36247423009677
O           0.85398431046735   -0.65090040138368   -2.48151496619218
O          -1.10914508653322   -1.75941229481034   -1.67020900039450
H          -0.61889920577287   -1.91542005115838   -0.80053522825683
H           1.38085415769518    0.19009088892958   -2.36086548531226
O           0.02076852308753   -2.01560575212994    0.61294931366894
H          -0.12655198367645   -2.89572763077159    0.96379199023456
O           1.33568640434497    0.53423549678036    0.54750017133211
H           0.49961524373723    0.59789341686397    0.03190876721579
H           1.45550472510927   -0.41227592055606    0.68244673704336
O           0.25034072326938    1.39511513174926    2.93696600983247
H           0.75648696768000    1.14806207634702    2.14066647595810
H           0.55260150645940    2.26701467051893    3.19327559492820
O           2.03422224621795    1.56803800378770   -1.85948211420368
H           1.35099541506415    2.23776095606925   -1.94579936021746
H           2.06720510723212    1.33025669880720   -0.91140342964134
N          -1.68771535138985   -0.31576682241349    1.57638429945128
H          -2.61095730328840   -0.56253656791092    1.90725641062942
H          -1.78539574302313    0.23717047935649    0.72959855496076
H          -1.24023107464584    0.27191483259785    2.27601384325888
H          -0.64440851255696   -1.39226125331526    1.08333842517185
