    23
        -45.36317782  Gyration_radius:  2.3241016885 Dipole_moment: 8.482
 S          -1.67017030145001   -1.14338880375745   -0.17779327080290
O          -2.88246980444848   -0.63631463262029    0.41254047407026
O          -1.70282808809365   -2.39398890208109   -0.85777759022291
O          -1.22847627689904   -0.04764631336287   -1.29875724839342
O          -0.53393056778723   -1.07747919036408    0.77862732266780
H          -0.22481288145419    0.27271465562395    1.44289463873588
H          -1.54673030983254    0.80375629410217   -0.89164545993785
O           0.01818274639293    1.17883784526006    1.81040709411473
H           0.11634807904079    1.06150065276121    2.75611027768283
O           1.54159509643864   -2.45947374277127    0.08767037187949
H           2.05955683187352   -2.55621690676679    0.88875451391207
H           0.64413829552060   -2.15122400026482    0.37436709931513
O          -2.12837845249408    1.85339707679428    0.19069509337379
H          -1.45712252473340    1.89999930633549    0.88891645192285
H          -2.70058339071911    1.09449931320063    0.43341310452909
O           1.88772314567291    1.80938889415654    0.02049974783416
H           1.59678510019754    2.65264397921162   -0.33196339281319
H           1.27132832445621    1.60400059909183    0.76223331054527
N           1.40866778012731   -0.35023885144916   -1.48077609825476
H           1.81148746298788   -0.40198163231203   -2.41059502633098
H           0.35840489152549   -0.29491169939012   -1.52874221625533
H           1.63053805324057   -1.22127405153899   -0.91630346302345
H           1.73074680043809    0.50340009014270   -0.95277573455611
