    23
        -45.36639831  Gyration_radius:  2.34890746348 Dipole_moment: 7.906
 S           1.19399044285152    0.94880065025489   -1.66011324963025
O           0.05017300346263    1.66787221272877   -1.08707856588572
O           2.00619747664503    1.71099460585520   -2.55111963278777
O           2.12744201855206    0.65058679336930   -0.37182587148605
O           0.78735223135981   -0.36903101491848   -2.12876669511598
H          -1.24149177070402   -0.68128656180499   -1.95073151623672
H           2.94189848096367    1.05773504637438   -0.64441086603336
O          -1.81844399823697   -0.15043168926711   -1.38836302058432
H          -1.27185908028809    0.65341271360939   -1.24737834763707
O           1.08271934207920   -2.05666423717097   -0.20804716060066
H           1.07585386068288   -1.41165157992770   -0.96522544222775
H           0.46953470407681   -2.75261753245626   -0.45487634056495
O           0.23879733950503    2.00750347116804    1.45603293956971
H           0.26109577453240    1.95555103461085    0.46373206904582
H          -0.51252036633871    2.56481941569390    1.66719455632447
O          -2.38990903595682   -1.11576452313490    0.97181219609539
H          -3.21057644478050   -0.69633780239691    1.23246882825072
H          -2.21773868235465   -0.81151658776304    0.03680954313580
N           0.09228569409499   -0.63409522694476    1.78922682210309
H           0.39996529553480   -0.96271822696284    2.69799354684363
H          -0.92856224808175   -0.83381487637768    1.62701191963452
H           0.24794378513549    0.40627796911186    1.69759098718639
H           0.61585215730498   -1.14762405366144    1.01806330060456
