    23
        -45.34917518  Gyration_radius:  2.36680751204 Dipole_moment: 7.527
 S           2.30093044821528    0.11183084166973   -0.15186332264886
O           1.77740032093138   -0.67719230472644    0.92408055567621
O           3.70056610660771    0.30315802553542   -0.22582568365059
O           1.73890949595994   -0.46080605901445   -1.49726054336156
O           1.60744922180592    1.51608997243074   -0.12246204535634
H           0.71603685051316    1.41099883995258   -0.55339173425759
H           1.22021022828094   -1.29355918654478   -1.30750897597433
O          -1.86049450639607   -0.94975225164557   -0.33938953210108
H          -2.80797953529381   -1.05860854545465   -0.25211180882565
O          -0.67733197861693    1.20695461059731   -1.34835632481372
H          -0.34871289705503    0.95907048771904   -2.21551777218637
H          -1.16457088239868    0.42151285884636   -0.99800888066969
O           0.16433252090902   -2.49019667655402   -1.19042985802213
H          -0.07432463711951   -2.86369961096732   -2.04129291161918
H          -0.63099578655092   -2.03790203859722   -0.83658564063680
O          -0.69118192639029    2.52689649443589    1.36011651433491
H          -1.03323392813382    2.50655442538856    0.46146196648716
H           0.26593838441014    2.57851001306078    1.27318001426131
N          -0.83873470626879   -0.33250016494830    1.91058287451002
H          -1.49297099062181   -0.74408948408792    0.62413499785865
H           0.14433564659021   -0.54656567253316    1.73027526229097
H          -0.91267327899308    0.67930603000719    2.01128051484222
H          -1.10290415039590   -0.76601061457631    2.78489234386209
