    23
        -45.37858953  Gyration_radius:  2.33481109019 Dipole_moment: 3.215
 S           1.38867006142252    0.97398473800735   -0.95324877662661
O           1.22233426893702   -0.29242914406183   -1.64989880518062
O           0.33003616257747    1.92588527638450   -1.20456610379432
O           1.62100513359669    0.76722794505226    0.47792985014502
O           2.71469811880286    1.62720899325306   -1.52803481440223
H           3.36374338808076    0.93148261339212   -1.47990564810756
H           1.66844004299568   -0.92757395409164    0.74613867851314
O           1.52043186839577   -1.86409750130194    0.50543558049457
H           1.43223601757312   -1.80706816741981   -0.45672705480129
O          -0.57082375765278    1.89435008552497    1.34295756292969
H           0.31871885283736    1.48329676597822    1.25578526471441
H          -0.60073758144337    2.46346471494921    0.56251067026318
O          -0.81464877624828   -2.31675949651718    1.60052742014252
H           0.07832915330760   -2.24961999403556    1.16264875675679
H          -0.63703366895000   -2.37277331549299    2.54069051795559
O          -1.37736806105522    0.06737535681732   -1.94451498167914
H          -0.54835847648390   -0.43204222768194   -2.05397238593255
H          -1.03171968292879    0.97764194082618   -1.88105071714964
N          -2.03811997400421   -0.17550026217529    0.60059213798167
H          -1.52414623077638    0.67125375867340    0.99448001868178
H          -3.03182515010195   -0.12497483363325    0.79754538871626
H          -1.86364109727442   -0.16897138019459   -0.45182818163399
H          -1.62022061161500   -1.05136191231022    1.01650562197986
