    23
        -45.37504664  Gyration_radius:  2.35666296398 Dipole_moment: 7.229
 S           0.13009686891399   -0.61404546047535    1.36987217620715
O          -0.94913817580121   -1.55333362256228    1.11739951610403
O           1.32098459928642   -0.88081989375848    0.59772321448886
O          -0.33919324211446    0.77057357002400    1.14606084843569
O           0.53225543669310   -0.70650154263543    2.88116557512191
H          -0.31831164103468   -0.56988367165441    3.34010552168507
H          -1.38718818109855    0.48926121380122   -0.16086620601277
O          -1.76641389059880   -0.00294143035804   -0.92164997978137
H          -1.79052976305446   -0.90572437311937   -0.57112197057705
O           1.83271041002090   -1.61864335142682   -1.82553014200124
H           1.61163508418554   -1.48311862277634   -0.86833495095430
H           2.79095422872611   -1.59392817980497   -1.86286063091217
O          -2.07320362852490   -0.25397884647046    3.14499572897855
H          -1.99513187296642   -0.91120412656394    2.42967494100863
H          -1.99594118243146    0.60024764278968    2.70847262142684
O           1.12734177506825    2.17640094639346   -0.50904998247034
H           0.81653644932228    3.06954473404868   -0.34978205079694
H           0.70736112443773    1.61940794164829    0.19282799909792
N           0.35125287985506    0.48292360222299   -2.40914647121094
H           0.23988477901450    0.77637448351650   -3.37305158454231
H           0.98521378585868   -0.36306444859287   -2.31706565216266
H           0.74839661736651    1.24504383314239   -1.80136916465811
H          -0.57957247111070    0.22740959260198   -1.95846934651012
