    23
        -45.37882880  Gyration_radius:  2.32750315832 Dipole_moment: 3.291
 S           1.56195736666663    1.00176263232340   -0.41772412551294
O           2.25121077990070   -0.20978952188496    0.01165051962057
O           0.65178681286874    0.76019173546856   -1.52387405036796
O           0.94249411839955    1.69776247755711    0.69730636321739
O           2.67498521147566    1.97343021119725   -0.99571100225908
H           3.22984208335754    2.17066331093486   -0.24705383478364
H           0.57035450601694    0.41705668641359    2.07201005965936
O           0.75900156893786   -0.53230076177151    2.13654757065929
H           1.49515202716546   -0.61943459872823    1.49429638975635
O           0.65279965054321   -1.84995254366747   -1.40570501271446
H           1.50314708801756   -1.77864299643894   -0.94721934639470
H           0.52939947291526   -0.92964991351889   -1.72252015281256
O          -1.41457816619055    2.06204057225406   -0.51665460949292
H          -0.81908725981463    1.66288847619956   -1.17743143121608
H          -0.79851491829136    2.24720850624696    0.20850638823117
O          -2.91479278570758   -0.00885798451654    0.03509403906587
H          -3.45517299030809   -0.11660053022292   -0.74910845686194
H          -2.40271024906483    0.83573086711780   -0.10850674514689
N          -1.02075286653872   -1.77641084341560    0.63700140233896
H          -1.37204205252012   -2.66072092153838    0.98791135087388
H          -0.42003559890636   -1.91591993734166   -0.23249536608532
H          -1.81706397469937   -1.12129962134161    0.40807616798499
H          -0.38737981420558   -1.30915532108661    1.35560388224686
