    23
        -45.37544733  Gyration_radius:  2.31633275951 Dipole_moment: 2.176
 S           0.59416371136290    1.31250691848208   -1.43823308494468
O           1.33104949820733    0.06617911465092   -1.21706475226328
O           1.19461042524739    2.22787569903709   -2.34979023537452
O          -0.77965695821979    0.84968224033009   -2.15896588666253
O           0.17338787668226    1.86944616733656   -0.15778629117459
H          -1.13325640925324    0.97199216699021    0.30387927721014
H          -0.71137612633611    1.40898015846396   -2.92454570635814
O          -1.88793508054587    0.40444077405710    0.57639290451198
H          -2.50933334947252    0.44592919699725   -0.15206188544555
O          -0.86752537315661   -2.06412691512114    0.96819060331703
H          -0.74925704427314   -2.28133798771463    0.01888566319915
H          -1.40597986002693   -1.24593144451474    0.96445075771944
O           0.65213425313836    1.49650826657699    2.43361825699045
H           0.56315829494832    1.86046770611611    1.52960141894823
H          -0.24378761480723    1.45307895058243    2.77741572840164
O          -0.33701420165450   -1.97864617834216   -1.66657083203666
H           0.35546029234422   -1.29209536279739   -1.59138094008924
H          -1.03269580545174   -1.57431358456600   -2.18895933180335
N           1.38497367511048   -0.79768483848008    1.27385361312592
H           1.48514805290527   -0.44213429614532    0.28465949950371
H           0.51026597989040   -1.42892567265424    1.26627424339402
H           2.21664999298850   -1.29908027525512    1.56423117521448
H           1.19681575030634    0.03718919593129    1.88390579473005
