    23
        -45.36238497  Gyration_radius:  2.44977054306 Dipole_moment: 7.622
 S           1.06575986578254   -1.99397699322343   -0.53496503442976
O          -0.21769588513639   -1.40610423064017   -0.91903640674629
O           1.71936239789258   -2.71957546994221   -1.56682387694585
O           1.90209514445641   -0.93269183204590    0.08072427196326
O           0.73838719809202   -2.99343430681881    0.65792888227709
H           0.31506606503927   -2.44523317721028    1.32172242672669
H           1.51094228200623    0.32834941734138   -0.85077707225349
O           1.03101384548604    1.00697363810052   -1.39258682498167
H           0.79800102953466    0.54221399904481   -2.19956687719562
O          -2.69822186549938   -0.93574876257884   -0.28728955787705
H          -1.81155202233706   -1.30434657251500   -0.51608662121691
H          -3.23807728927032   -1.05197599548863   -1.07038514670823
O           0.46012046159883   -0.49526904034123    2.11532264842148
H           0.99720838852274   -0.27950439961018    2.87944901401918
H           1.10012092807677   -0.63371554226378    1.35349279349353
O           0.10803572360264    3.41157258341406   -0.17463132413356
H           0.54299257539427    4.25766575354587   -0.28397115226730
H           0.61945097550747    2.76830877554733   -0.68761240263819
N          -1.01472139276180    0.99807472632249    0.42737219749810
H          -1.15566777848262    1.99885448177910    0.56960193419841
H          -0.33660098878080    0.88266880868109   -0.36680535779683
H          -0.56052770253937    0.54396273575812    1.24952854239156
H          -1.87549195611386    0.45293139310321    0.19539496417999
