    23
        -45.37288337  Gyration_radius:  2.30133304569 Dipole_moment: 7.057
 S          -1.93254264975527    0.33340991914281   -0.22550347342976
O          -1.51367345400008    0.11319790904626    1.15694466319737
O          -3.34029870281719    0.37478010510469   -0.44282137701400
O          -1.43046113937706    1.85075220001724   -0.55236777410520
O          -1.16180123164974   -0.50251307504582   -1.13591066985707
H          -0.09462724247237    0.35223656013405   -2.06295287634354
H          -2.30052483133189    2.22434999585049   -0.63564909778142
O           0.62605103295131    0.95335446364632   -2.36881438246845
H           0.28430207695035    1.83654436851088   -2.21097324731783
O           0.71932918781451    1.40230541896743    1.38087134037327
H          -0.13029520888686    0.89020378706167    1.37975589559320
H           0.48121965452743    2.26050966740456    1.02385086400490
O          -0.39432681253701   -2.09218495936588    2.15567866752760
H          -0.07030448682713   -1.83805775652277    3.02107397457625
H          -0.92600839691877   -1.33644318813828    1.83327960393740
O           0.69232394458993   -2.25466870193922   -0.29468380938765
H          -0.07168344450314   -1.82145724827852   -0.72464137682803
H           0.39357378429533   -2.41134669668687    0.62352670516845
N           2.07405098735923   -0.06249378508503   -0.38026889863785
H           1.70798699223707    0.36465588462549   -1.26935718805982
H           3.08597808848538   -0.10881790384501   -0.36276120500989
H           1.68391289920781    0.51641287661908    0.40854116115208
H           1.61781894265791   -1.04472983120928   -0.31681749927991
