    23
        -45.37526595  Gyration_radius:  2.46210218278 Dipole_moment: 2.029
 S           0.70948051908369   -1.77127740996924   -0.85699801775043
O          -0.49341707697302   -0.95806399431052   -1.08637104079406
O           0.53580590675576   -2.64656642745247    0.28399302553523
O           0.85360746098256   -2.70751418966996   -2.12600161700255
O           1.89688571442901   -0.95046368426795   -0.80173335545883
H           1.82647306809483    0.62833266370248   -0.51734378571223
H           0.17221544529428   -3.35369262090239   -1.97028612452003
O           1.69315830185043    1.57088899866309   -0.23664313317653
H           2.56889521918794    1.95421997640317   -0.17475622785983
O          -0.69403571667273    1.69994660211408   -1.77652516997528
H           0.18536892861459    1.93043954728473   -1.44676051867563
H          -0.71227880765159    0.72781526015747   -1.77263070057192
O          -2.34592824043619    2.26509187238938    0.25543527358400
H          -3.24770222527756    2.06268957117303    0.00414553739914
H          -1.81078240223905    2.20729545406657   -0.57295582202912
O           0.10177117679253   -1.53802583018945    2.63473268064335
H           0.22127883127001   -2.04336113693042    1.79553726229533
H           0.85283599223364   -1.76718096339078    3.18371795008569
N          -0.47002437289099    0.54870592080846    1.07115450564586
H          -1.29327017015556    1.18696724811926    1.08551245983610
H          -0.35020090243224   -0.05727621762749    1.90606073530347
H          -0.58033754577130   -0.09348945941248    0.23782141896007
H           0.38020090503100    1.10451880186428    0.88089467693286
