    23
        -45.38321156  Gyration_radius:  2.2583843347 Dipole_moment: 3.082
 S           0.26081272789040   -1.63376667729099    0.94325740152684
O           1.06744588253737   -0.52906561300935    1.45757150748098
O           0.39589680943209   -1.74684502319749   -0.50624712189621
O           0.88821175810076   -2.94832805515525    1.56062339339566
O          -1.11192533143143   -1.58976192501851    1.37850632345543
H          -1.13680774984923    1.50972328195403    1.09860304986007
H           1.81981602182462   -2.83515032155667    1.40401587410233
O          -0.21289439654123    1.79983948886411    1.18669505680813
H           0.27959144459168    0.99766192962911    1.46232641595448
O           2.43777660559517   -0.11082155938910   -0.75693029470561
H           2.27888626895928   -0.06507029039242    0.20390902369481
H           1.84966990072079   -0.84846181004185   -1.00907929158405
O          -2.51270541220368    0.42123751463507    0.56353737380462
H          -2.03328580429239   -0.37677695852104    0.90825740227828
H          -3.40634750665770    0.35988725912462    0.90429293013358
O          -1.23024574615414   -0.08581177062686   -1.81840590000339
H          -1.89423104749371    0.11146856605159   -1.13604013638225
H          -0.70738613555689   -0.83104653479216   -1.45311356997902
N           0.60334195720303    1.71558631681310   -1.30402444414307
H           0.30300852854610    1.94838454135772   -0.30685312359467
H          -0.16297614648092    1.07898354200395   -1.68805517515952
H           0.75119607720583    2.54039906014113   -1.87299404520730
H           1.47315128406289    1.11773504842460   -1.21985262983418
