    23
        -45.37526558  Gyration_radius:  2.46199822575 Dipole_moment: 2.027
 S          -0.50355894357673   -0.49596682136802   -1.96872269887132
O          -1.22013143533654   -0.61783120178554   -0.69082692228520
O           0.42289544594817   -1.59425649695369   -2.15192690205109
O          -1.60133746732260   -0.63724381643477   -3.10099219191804
O           0.08911942090450    0.81300984636808   -2.11736139809909
H           0.35937804046560    1.77051226108331   -0.85677024818969
H          -1.78401042452794   -1.57121830801077   -3.08033911057611
O           0.58025534178658    2.24661778683932   -0.01444428295383
H           1.03913276033029    3.04594701969843   -0.27559401161912
O           2.37167439705257   -1.88171669701350   -0.40179194415761
H           3.18812339196892   -1.73679404957171   -0.88191569465329
H           1.65798676845226   -1.87919256197030   -1.08338117884941
O          -0.74886092064898   -0.00038888518905    3.18358191831044
H          -1.37841344934326   -0.63137199237371    3.53406137111580
H          -1.25604673552982    0.57702403259889    2.56278056723928
O          -1.85454833093802    1.33622806780773    1.14219110447315
H          -1.88471621145964    0.64679965076548    0.45716681264132
H          -1.16456493419314    1.94595405189082    0.84684019447759
N           0.76578687365081   -0.27618307696020    1.00197371381174
H          -0.04710304001805   -0.51558765065743    0.36888167069903
H           1.55214245909639   -0.89975359574843    0.73438551711354
H           0.98498436814071    0.71489228133218    0.80687922082316
H           0.43181259509442   -0.35947983434083    1.98532448351877
