    23
        -45.36705564  Gyration_radius:  2.32119536745 Dipole_moment: 4.973
 S          -0.13669556486679   -0.93208686096426   -1.51486559213352
O           0.46061264907349   -2.31280242375302   -1.23059867242693
O          -0.68143157445808   -0.87521874157003   -2.82406840665105
O          -1.27825340684354   -0.79343128823319   -0.48746878226323
O           0.87007064797588    0.07550915131542   -1.21174053010923
H           1.71910962570308    0.37869562005746    0.16287458939319
H          -1.00108115456146   -0.35040516084700    0.40449182265630
O           2.04140173772931    0.52923393375481    1.08157339477911
H           2.54096160635771    1.34726851149924    1.05988484342387
O          -0.98144036682948    1.85433055598075   -2.02664733724377
H          -0.12853162600936    1.44106209251009   -1.82512044196211
H          -1.42150492762100    1.21700710227494   -2.59764049676941
O          -0.62373691165960    0.38774780188544    1.64482525347476
H          -1.03925590648189    1.24488800335803    1.38460296794779
H           0.34122699194463    0.53431735271066    1.60049685534234
O          -1.73448199300277    2.50484471951301    0.49700760010078
H          -1.46919386110504    2.36295406122445   -0.43642109753059
H          -2.69297718460159    2.51104337308525    0.50083864498618
N           1.06447942584386   -2.23205012453794    1.25425313806139
H           1.49007503165102   -3.06969713159620    1.62866259207376
H           0.74597787954776   -2.33862902311416   -0.21958668085207
H           0.21500566130801   -2.03426677980204    1.76951042942509
H           1.69966322083657   -1.45031473473012    1.38513593625849
