    23
        -45.38139705  Gyration_radius:  2.27239560079 Dipole_moment: 2.629
 S           0.47768132318845    1.43361909056939   -0.91176648636034
O           1.24986318478476    1.23616616814963    0.30364658351526
O           0.82583968510002    0.51164476070951   -1.96835450351530
O          -0.95873660444520    1.44285744956233   -0.63472818843469
O           0.83626231580953    2.88268978757498   -1.43705819264138
H           0.68308985790865    3.43031204591593   -0.67366955269895
H          -1.39702461675655   -0.07277430844991   -1.14904637246543
O          -1.42063271535507   -1.01020236833024   -1.44702723404773
H          -0.88022398766402   -0.99897093709858   -2.24361124000664
O          -2.24650232047225    1.03522507529998    1.65889997592785
H          -3.08328867603626    0.64237030830795    1.40582396084944
H          -1.81235362539319    1.30518196142765    0.82375668991593
O           2.39491711754104   -1.10524657746527   -0.63630188186902
H           2.65844817013380   -0.45840506402455    0.02784218768907
H           1.92112241325570   -0.55809329064023   -1.30300471659391
O           0.08185740709315   -0.19568510360703    2.22037670997528
H           0.60044967242535    0.41574744491754    1.65485657311700
H          -0.80783072884428    0.20858684593387    2.25519301508818
N           0.16630012894438   -2.06608658051373    0.41665681147070
H           0.06989267512814   -1.40277608514489    1.26066025205510
H           1.12098378719005   -1.85838963760729    0.00146909076854
H           0.06915648546591   -3.04000108746960    0.67962284733992
H          -0.54927095900542   -1.77776989804673   -0.30423635905477
