    23
        -45.37539245  Gyration_radius:  2.30843779938 Dipole_moment: 5.185
 S           1.00656120419690   -0.43485268073040   -1.60358814966761
O           1.61024888276069    0.68975757869046   -0.90448636316086
O           0.74889290427994   -0.22044150840160   -2.99234295422758
O           2.09823896537403   -1.61657086059810   -1.51715784868991
O          -0.12754294257433   -0.96926488629134   -0.84258423941486
H           0.49951109410527   -1.48300610178836    0.59542651079960
H           2.38881071342868   -1.73178756823879   -2.41720947227275
O           0.86669114518399   -1.61170082797063    1.50091094729622
H           1.70897095925054   -2.04959942523848    1.36911773313056
O          -1.21590882745851    1.40465156096564   -1.62339363287716
H          -0.89699221050249    0.50312951740887   -1.48118198667899
H          -0.82257466445014    1.67778697527465   -2.45442649844312
O          -2.16590895605811   -1.03747407050923    1.00892568859252
H          -1.68690902713368   -1.53593726415777    1.67547421069522
H          -1.63211872851916   -1.10837212844423    0.20267949573015
O          -1.81828283698064    1.63327751346533    1.03512351836339
H          -1.77768171129061    1.80064983808819    0.07809649542818
H          -2.17992275109967    0.72448386901294    1.11009859434854
N           0.68888245269884    1.08984896657244    1.48368484722290
H          -0.34786425798876    1.38160581545135    1.37703362244268
H           1.10157763424230    1.04753166345643    0.49999543056787
H           1.20468894401733    1.73403738420513    2.07216643092469
H           0.74863202449676    0.11224663967223    1.82763760983663
