    23
        -45.38009247  Gyration_radius:  2.28819956599 Dipole_moment: 6.352
 S           0.61978426398539    1.75797717877670    0.27219029685054
O           1.47739550118251    0.89061853863709   -0.54985103195770
O          -0.74238455959519    1.77874629156218   -0.18929176838287
O           0.77339538420364    1.42807487835471    1.67927587373808
O           1.19148339080678    3.22085524384160    0.09519620363948
H           1.99881890307633    3.18640461440380    0.59742299177925
H           0.17359931484637    0.03236383424249    2.15702238487892
O          -0.15600073433055   -0.88526947905233    2.35527339949735
H          -0.14271658095416   -0.97259663769576    3.30945725103752
O          -2.18518153277135   -0.42044093340322    0.42477854588510
H          -1.73409932536571   -0.68753893890222    1.23615900475554
H          -1.81955005012346    0.45672788458848    0.20572652737592
O          -0.24801979842864    0.55560262402106   -2.60336365274631
H          -0.90580079584716    1.16130594234196   -2.24390130144477
H           0.52617511904245    0.69649562372678   -2.03114093708258
O          -1.05732025531293   -1.77079867843330   -1.56365708352640
H          -0.83132072166092   -1.01626101765842   -2.15637820812011
H          -1.69383918073078   -1.38965406731519   -0.91319564410850
N           0.97647138313017   -1.63044012040004   -0.00550414098632
H           1.72552031762996   -2.30413205947631   -0.11688470493117
H           0.61204263718839   -1.61870748678004    0.96223803777080
H           1.30470056810262   -0.64966851335813   -0.22367472245247
H           0.13684673192284   -1.81966470202993   -0.69789731146576
