    23
        -45.35545883  Gyration_radius:  2.42357413353 Dipole_moment: 5.684
 S          -0.03996602748509   -2.47345892657819   -0.30780721267218
O          -1.24910033418809   -2.22253604228703    0.43204830959212
O           0.07274635531637   -3.69431562055332   -1.01111151512353
O           0.15787948522869   -1.26419799832048   -1.28986057915685
O           1.17982385721082   -2.32247000550081    0.63745774271372
H           1.12741178896371   -1.43364817631255    1.09030273166791
H          -0.59706653968231   -0.61945463746174   -1.17474666359105
O           1.15312314751713    0.05918182804156    1.66431792433841
H           1.87187325260908    0.14872957234488    2.29223708055708
O          -1.60917517104532    0.10612802506454    1.66885925898134
H          -0.67682805156921    0.27565505646985    1.87362366683369
H          -1.65042052401864   -0.85282560272447    1.49354005113027
O          -1.82157069595253    0.38465335403263   -0.90153094056769
H          -2.61154646957018   -0.10128557607777   -1.14700516818187
H          -1.80316560496678    0.38712538710670    0.10329001072597
O          -0.46364934158462    2.80756126349016   -1.13907050898595
H          -1.01082225093153    2.01409456940042   -1.24175810727263
H          -0.89521865103297    3.34825708185228   -0.47546634508483
N           1.83102466632242    1.14474890935346   -0.58314584302780
H           2.76046170645378    1.51101964983591   -0.74330445587250
H           1.67535623118239    0.37629007386430   -1.22711697044016
H           1.44270385780013    0.54696235369784    0.80475135857381
H           1.15612530343330    1.87378544126021   -0.81850380513923
