    23
        -45.35545904  Gyration_radius:  2.42383154699 Dipole_moment: 5.696
 S           0.31554150134770   -0.65242452280003    2.38498774009840
O          -1.11421362971677   -0.70604203322400    2.22602571954978
O           0.83982065032389   -0.56080434415700    3.69443742927879
O           0.95671425856545   -1.86957123056149    1.66998519910232
O           0.83093764438918    0.54661178041596    1.51179142376291
H           0.05284025980678    0.98682222813846    1.06488607758741
H           0.63103261808384   -1.89554575773689    0.72596909243094
O           0.26781239804325   -1.82821725894134   -0.83002002021884
H           0.61537224024314   -2.60379744153038   -1.27341730055658
O          -0.13520022675873    2.19613010744314   -2.13635612971814
H          -0.50857900599883    2.19526326643051   -1.24179160272611
H          -0.86456910724132    2.02002636302024   -2.73304254110649
O          -1.24517391685712    1.61243809563091    0.35333949720508
H          -1.68275590549991    0.76151267382612    0.04615954229162
H          -1.79317397357157    1.94442017687999    1.06744800538829
O          -2.19269558025485   -0.73665239127823   -0.20674889428607
H          -2.06658144353374   -0.93094199278626    0.74109190746190
H          -1.47178007760736   -1.20977933425030   -0.64982746859661
N           1.79101708800103    0.20232567039692   -1.32647409640084
H           1.23511972318541    0.93786499178806   -1.76491476663024
H           0.87072025951192   -1.03607407439571   -1.09379369890487
H           2.65636494856817    0.11011095518521   -1.84255408666116
H           2.01142928701579    0.51632406250354   -0.38718102828779
