    23
        -45.36842361  Gyration_radius:  2.42190912932 Dipole_moment: 6.513
 S           2.32130509235491   -0.49350367851119    0.22656954716565
O           1.56430684354580   -1.74349266001146    0.10146235580099
O           3.22389632656630   -0.44748804233087    1.32399711582833
O           3.13449690191165   -0.34933209163876   -1.12026689982097
O           1.36501370272710    0.64142852145493    0.21821947032823
H           0.33803909303264    0.75168027401680    1.40122562593677
H           2.45284953959260   -0.40580099545193   -1.79637094821925
O          -0.38362094697213    0.72376672836468    2.09184886426119
H           0.04963513597968    0.94104167220704    2.91852429122934
O           0.60581772741646    0.38932454887668   -2.21699431435860
H           0.83288524129922    0.56350044830170   -1.26635636287266
H           0.67305606696074    1.23468743904701   -2.66542849537686
O          -2.16042355959523    1.84237548041811    0.25851455312099
H          -1.51759570083383    1.57851100652210    0.93834684968186
H          -2.88658535666624    2.27232956100044    0.71154803822617
O          -1.90956152289211   -0.29208414740249   -1.42705914673828
H          -1.07070573376290   -0.12042068664527   -1.89991270978222
H          -2.13040317799436    0.54704443112340   -0.98259234161448
N          -0.92581852995715   -1.54685320033574    0.65216419505750
H           0.11938661722122   -1.69762591474328    0.40255781353500
H          -1.40270788676235   -1.13501972348820   -0.21636378939829
H          -1.35478021114224   -2.41700794368269    0.94519472077333
H          -0.93848563204213   -0.83706100705281    1.40117157721740
