    23
        -45.36764279  Gyration_radius:  2.56313659612 Dipole_moment: 3.543
 S           0.03394591811962   -2.48941306901925    0.95985175286089
O           1.29978812279278   -1.83102101127733    1.27135311016017
O           0.05075469815715   -3.91243199405227    1.04045089291181
O          -0.98683739652888   -1.99354908682824    2.11989411433595
O          -0.55359469192437   -1.92832179793301   -0.26070358609855
H          -1.42400712210126   -0.61173914209569    0.21624422151396
H          -0.96971665965824   -2.74957166045436    2.69689425353844
O          -1.68990294978322    0.26340804324900    0.58830598974199
H          -2.06477312960081    0.05997737488346    1.44761553664910
O          -0.88361600596015    1.97232513952905   -1.54491215993450
H          -1.48102719305850    1.56336206144495   -0.90614186086358
H          -0.48805391337826    1.23719566103495   -2.03270855869091
O           1.10616924675931    3.18141260182029   -0.10213472320944
H           0.37137942570082    2.87587162464991   -0.67351622876679
H           1.18262517873070    4.12444176837648   -0.24581104276681
O           0.53712045467243   -0.42217966858752   -2.12468903794023
H           0.98657304610336   -0.93937050072083   -2.79368940330249
H           0.08086348707344   -1.06734910458787   -1.53517833183690
N           1.00549805162188    0.55190086533958    0.39408891775645
H          -0.00941853546276    0.69181117067196    0.58652859799261
H           1.09297895167575    0.40514231199772   -0.62583229235892
H           1.52363441962283    1.39091739751993    0.66132314630284
H           1.27961659639329   -0.37281897497689    0.86276670200000
