    23
        -45.37430970  Gyration_radius:  2.36012233965 Dipole_moment: 4.521
 S           1.38129815407579    1.25891515897801   -0.87034718618134
O           1.71021636244512    1.01395736265104    0.53156837211209
O           1.76753131325407    0.18509328151817   -1.74271612176325
O          -0.02636031363761    1.64632524517989   -1.01055678914769
O           2.21863537340979    2.53545061357993   -1.30416542031088
H           1.88973067216097    3.22910369522264   -0.74025455758466
H          -0.79499748129982    0.34337659111183   -1.94106665569927
O          -0.66736661761909   -0.56491294186775   -2.27666946379377
H           0.30295075992669   -0.56726487176139   -2.40044035492223
O           1.55277449902171   -1.53523698670736    1.02472192192963
H           1.72064150659177   -0.59660980701115    0.75866434148282
H           1.69548471101451   -1.56742439817951    1.97281926242861
O          -2.35585856008042   -0.50231401906432    1.57768136739043
H          -3.20796742571438   -0.15623675600648    1.30825685380200
H          -1.75801704432969    0.29091389721857    1.65589918017664
O          -0.75010670036549    1.56795011345967    1.50259869390685
H           0.16760061852199    1.37049769306613    1.73241687157841
H          -0.68203181970262    1.71742011494425    0.53500023658731
N          -0.84338137929202   -1.95592543587707   -0.06219118122583
H          -0.81881502611914   -1.44543541959384   -1.00830552430152
H          -1.10091825001333   -2.92909109165422   -0.18459810278595
H           0.11803584116340   -1.87893297286578    0.36469669295329
H          -1.51907915341065   -1.45961906634553    0.57698754336037
