    23
        -45.37195990  Gyration_radius:  2.26506496544 Dipole_moment: 3.926
 S           1.63471876036280    0.62276206112205    0.32863466738904
O           1.77206975021628    0.99562820369189   -1.06377734771437
O           0.56586178675966    1.32633505171913    1.01797213368689
O           1.52826611489641   -0.82052480763984    0.50609772528589
O           2.97600675350321    1.07570873576520    1.03968242590721
H           3.63106231887380    0.92035304887301    0.36666565879636
H           0.67955149621413   -1.16114669886924   -0.91363491474250
O           0.12904143961769   -1.20169988048350   -1.72056862662690
H           0.60219726516926   -0.65715088178078   -2.35601527986641
O          -0.46598333975388    2.40423717901573   -1.37198270765514
H          -0.49247443028334    2.82801558355198   -0.51003682807827
H           0.39872491347696    1.94637755434673   -1.39285251892156
O          -2.02814207540914    0.27297311267623   -1.18078226681121
H          -1.36338498562996   -0.39028107491407   -1.47944233781117
H          -1.60790717039944    1.14550128491863   -1.38225629768247
O          -1.67064570867686    0.15831224381833    1.27595598069950
H          -0.80166263907459    0.68355194261226    1.29416804650608
H          -1.95337208543337    0.21032595563793    0.24179031354844
N          -0.70714454060395   -2.16780244925447    1.48617123888737
H           0.24239653267946   -1.86827021681937    1.24436071586406
H          -1.35875707801035   -0.86279141622875    1.43029539095963
H          -1.02617862802505   -2.80538898983138    0.76764925870698
H          -0.68424445050051   -2.65502556193065    2.37190556966981
