    23
        -45.38129183  Gyration_radius:  2.28536391877 Dipole_moment: 2.214
 S           1.61437552597281    0.81923014042399   -0.08278499168584
O           0.50620907994249    1.77052765512992   -0.08094559002866
O           1.51128873944330   -0.12345595268783    1.01670769215881
O           1.78644641859476    0.19867533564979   -1.37863041547924
O           2.93032301957979    1.65628956442211    0.19310833010056
H           3.10392704385490    2.06952026597002   -0.64688051258206
H           1.43634971014757   -1.45157529854758   -1.12161489805649
O           1.16418827625056   -2.30618493837241   -0.73141530613739
H           1.55560861147107   -2.29568465576975    0.14585636533232
O          -1.45806138366543   -1.84608179407918   -0.48857962511886
H          -0.56102186675991   -2.22030577980485   -0.64578978477230
H          -1.49687555231545   -1.06387624567664   -1.07898914041897
O          -1.88144019985860    1.89599578571174    1.07998908694682
H          -0.98193840162405    2.06508804762331    0.73114077562218
H          -2.45255187627303    1.88268916891655    0.30758416173123
O          -1.01204293826176    0.45087061105243   -1.82831729218303
H          -0.39126726401294    0.17810064121943   -2.50900329160837
H          -0.47604733485044    1.00031634798549   -1.22311064053621
N          -0.99253100952125   -0.54458438832239    1.70180923587751
H          -1.29178540507318   -1.17050235080519    0.86866072588187
H           0.03919088751755   -0.36962554379584    1.56252553374434
H          -1.47613150788425    0.38367377791696    1.60977025190789
H          -1.17621256267248   -0.97910036416154    2.59890932931048
