    23
        -45.36963244  Gyration_radius:  2.2707438906 Dipole_moment: 5.880
 S           0.52924199457771    1.20557663202998    1.62201776900385
O          -0.54589388882152    1.93177380639257    2.22855037672014
O           1.83889060083790    1.32273158756892    2.18637240678686
O           0.13935250369351   -0.38426203128172    1.86693025410754
O           0.51580217528681    1.29719803311997    0.15508717110156
H          -1.14511240368190    1.17275162592278    0.13543236183705
H           0.23468569458115   -0.43750549739741    2.81287457821741
O          -2.09791197135185    0.98420842513763    0.00207112646605
H          -2.51795453104044    1.40922340897527    0.75380896076004
O          -0.32828792362038    0.94603898947512   -2.38307042521004
H           0.14824039882923    1.34342230918036   -1.63425445292146
H          -1.25874864784238    1.05191584328706   -2.15530554382166
O          -1.58437379862370   -1.64345507262612    0.16827546715828
H          -2.01036660403119   -0.77278489490056    0.00746961772399
H          -1.05198186253556   -1.47965023405051    0.96192646509151
O           2.41763804917759   -0.48665709364399   -0.03497264048551
H           1.85261716783540    0.30539060722066    0.07699863140122
H           2.85397744970294   -0.58388944314693    0.81385744846354
N           0.41208737960344   -1.46423721397332   -1.53396140530558
H          -0.40971994250651   -1.67551530963056   -0.88312008684641
H           1.25521804538966   -1.25835545141388   -0.94777146080305
H           0.59256647080143   -2.21943226411555   -2.18594671108370
H           0.16003365373634   -0.56448677213129   -2.03326991835813
