    23
        -45.36955938  Gyration_radius:  2.41240588875 Dipole_moment: 4.547
 S           1.63601143709170    1.31416740638319   -0.92542915368617
O           1.91952028491502    1.18814982595200    0.50076055920561
O           2.53356774324883    2.14183834927786   -1.66224604413488
O           1.86826519896233   -0.18161822962653   -1.52027106813186
O           0.21191835832544    1.55863860620293   -1.14254996607221
H          -0.81561164524817    0.34529486723596   -1.51970129133979
H           2.72278646092793   -0.02745503270359   -1.90706231297926
O          -1.51211425277697   -0.34544198672760   -1.64530382101789
H          -1.67364759382679   -0.38620903388261   -2.58884895832169
O           0.15485377585629   -2.24564981367666   -0.66513944736043
H           0.94842987882730   -1.74866889378765   -0.90104898041734
H          -0.57869989696420   -1.70706911414541   -1.02317675635669
O          -0.30916039013115   -2.14058765237901    1.91790008052841
H          -1.13199506834000   -2.61393224583069    2.04809161372428
H          -0.06123608961833   -2.28036555884017    0.96616769415275
O          -1.94898620964247    1.62630083790340    0.43802854535948
H          -1.22403356389446    1.91145466289759   -0.15224784022976
H          -2.39996020120537    0.93664595286965   -0.06285764127895
N          -0.07748283241405    0.52714438702656    1.99043923317222
H          -0.91398576146828    0.95023632804087    1.50897998662085
H           0.78091345503065    0.77905246076707    1.38819862258923
H           0.04178868566038    0.91585919457246    2.91967873565477
H          -0.17114178333298   -0.51778529752637    2.03763822032730
