    23
        -45.36069095  Gyration_radius:  2.58261621381 Dipole_moment: 7.759
 S           0.94298023042360   -0.41936207604264   -1.94054544481013
O          -0.47533270735293   -0.71164731140544   -1.66985015508230
O           1.26969473693930   -0.42146678593383   -3.33711334930317
O           1.09080681810450    1.13039700507690   -1.43116817956106
O           1.81021924085919   -1.14504515633998   -1.04621077003966
H           0.26486557052711   -2.58183330833327    0.39474690211107
H           0.49378643182717    1.59084978157594   -2.05952155900794
O          -0.32068997009173   -1.84413679424742    0.58335097809852
H          -0.49097483317030   -1.43723295471649   -0.32739310051542
O          -0.66154386588906    1.43836647707631   -3.35901010482488
H          -1.18478086504542    0.77142045409222   -2.89430326300478
H           0.00042679065633    0.91138118868700   -3.83693743758478
O          -0.49425272205224    1.46713836471591    2.86109873819404
H          -1.12869324903151    0.71757665737542    2.81435381998769
H          -0.98088380813945    2.24569712188534    2.58454179864195
O          -2.03428522039699   -0.67340755541988    2.39766934854114
H          -1.56271324597759   -1.14974829999605    1.69297911376308
H          -2.35004415257937   -1.33629191689221    3.01338101672788
N           1.17490960575039    0.30667775931995    1.13269381308399
H           0.67103568852315   -0.61504384158333    0.97612118348672
H           1.19043580321517    0.76038851840549    0.19496474769544
H           0.64208377663519    0.87494109228947    1.84174915139022
H           2.13294994628066    0.12038157040541    1.41440274199819
