    23
        -45.37555075  Gyration_radius:  2.42785518227 Dipole_moment: 4.955
 S          -1.38335850061542    0.44113463289453   -0.58530709436111
O          -1.72818913606229    1.54589627566120    0.29860298531057
O          -0.34928441050050    0.78836726110340   -1.54425292281332
O          -1.00526243236819   -0.73409317546456    0.20968636094042
O          -2.65428202906375    0.05868581236228   -1.41608346299444
H          -3.31488675245386   -0.16658630005822   -0.73330304356315
H           0.15008893169488    0.18834736590030    1.98598391969884
O           0.30503136643640    1.13505600925048    1.90555543598125
H          -0.49327548367018    1.46226373420273    1.42905696867539
O           3.19867983085572   -0.93476352079629   -0.62783288372123
H           3.53571595391742   -1.07747083864410   -1.51424497505181
H           2.39911920892319   -1.51304136670683   -0.55506292676899
O           0.94714479052443   -2.31001343053652   -0.55562454113734
H           0.80063088609703   -3.08642731901059   -0.01270708700406
H           0.20076592840883   -1.69740272950249   -0.35558937191409
O          -3.56939715195416   -0.34506721499778    1.04814051031902
H          -2.73049083525889   -0.82779010364291    1.07246807627804
H          -3.32508032337947    0.57715816625345    1.20005592563557
N           1.83378204358969    1.31914553751866   -0.25090258756733
H           1.41060757454399    1.31717871231621    0.71795027029674
H           2.29141077753257    2.20085050757286   -0.45434657518014
H           2.48594306014503    0.49773762894505   -0.36869226170151
H           0.99458670265002    1.16083434535906   -0.89355068934707
