    23
        -45.37363675  Gyration_radius:  2.27582661638 Dipole_moment: 5.471
 S          -0.58213181978808   -0.20176478372231   -1.96864061106032
O          -1.46598369467677   -0.75461882125910   -0.95603676169400
O          -0.83255580876362   -0.61771137288398   -3.30962470346345
O          -0.86636477863578    1.39382908981544   -1.96445085869691
O           0.81946327197470   -0.31109787286040   -1.54115128609574
H           1.48059531418151    0.49359068265764   -0.35959210024451
H          -1.18033330455017    1.47559479832416   -2.85831682121758
O           1.89671896511946    0.92733961103271    0.43863847318857
H           2.79264566232606    1.14520570743611    0.17827359906672
O           0.40743641653480   -2.54021135870923   -0.20068657409286
H           0.77688711260288   -1.86052162261654   -0.80197978725907
H          -0.54047909179065   -2.47941996068721   -0.38229429029533
O          -1.67190867365851    0.21172066734717    1.48703683169095
H          -1.78338036566210   -0.16398250625891    0.58394038140537
H          -1.39175358132505    1.14100709251228    1.32761017931546
O          -0.45482560370818    2.42572010457013    0.61381529099081
H           0.46341614253662    2.12190399214755    0.67547421043919
H          -0.70215265759076    2.29682355156375   -0.31118706739674
N           0.58743718422721   -0.95300957859505    1.90500978909440
H           1.26565301189776   -0.24112168848396    1.57940268186594
H           0.56634602325102   -1.72324770535186    1.17174739559274
H           0.81550477746039   -1.30467470318771    2.82734283332241
H          -0.40023449196560   -0.48135331279095    1.86566922554473
