    23
        -45.35612615  Gyration_radius:  2.38601509855 Dipole_moment: 2.005
 S          -1.15574428696751    0.59736517827391    0.30095663507937
O          -1.75681272583562   -0.56187195590563   -0.31800186739610
O          -1.25332212811103    0.65522945702236    1.71801889370151
O           0.33845839509178    0.62115314487125   -0.14246930547722
O          -1.70289354582729    1.88474232048922   -0.31508322165565
H          -1.48285427703825    1.89556062584819   -1.30695668328643
H           0.61703235396508   -0.37985074080105   -0.12911349369380
O           0.68881568036711   -1.84500992128950    0.07903957368772
H          -0.24264743499331   -2.07683048707480   -0.01471313060387
O          -1.16876517034531    1.75049029640631   -2.81025642854075
H          -0.89467988923332    0.80488629059232   -2.91352372252878
H          -1.97152523827378    1.85766249952680   -3.32600279540594
O           2.49670785872759    1.08804732404569    1.68666813017184
H           3.24586862063949    1.40780728592906    1.18101132500664
H           1.72841109144314    1.13872448951042    1.10366101421143
O          -0.67948326559028   -0.84034823653972   -2.71989828726509
H           0.19381701415039   -1.18620945054124   -2.52068413878785
H          -1.18666421608039   -0.87812829287072   -1.88221397755937
N           0.84345274166820   -1.20353973285696    2.58821810045298
H           0.01669756579512   -0.60856108309925    2.59243534475265
H           0.85009163699584   -1.77373315710376    1.08200716168333
H           1.64327136101828   -0.57843331254888    2.63949626177666
H           0.83276787801337   -1.76915253217138    3.42740462180539
