    23
        -45.34917518  Gyration_radius:  2.36692033734 Dipole_moment: 7.534
 S           2.21478099074081    0.16169508661929    0.63527954872727
O           1.68225712839824    1.27951870018450   -0.08668002026802
O           3.59380966223978    0.16043333778270    0.95029477361774
O           1.34348408466977   -0.05147855352111    1.91949903207480
O           1.88484917883941   -1.14730963433158   -0.15948740938728
H           0.94069027197274   -1.38596992634327    0.04773753776580
H           0.67336958999264    0.68672471036180    1.98624839457054
O          -2.06322145508780    0.39960120051258    0.25649871915462
H          -2.98592956697871    0.40120188701023   -0.00000529429197
O           0.13672226677020   -1.65985568148446   -2.43567195530729
H           1.05488281137974   -1.60845848639417   -2.15162090637511
H          -0.32957272278700   -2.11428731061496   -1.72791085859524
O          -0.56232449491338   -1.78196194895331    0.49391990810231
H          -0.43397257231837   -1.92589573311032    1.43425372953165
H          -1.16593853733039   -1.00389335264946    0.40869318571147
O          -0.60925249599101    1.63048543632994    2.14480685068030
H          -1.21368925734141    1.28858708895255    1.45185334163468
H          -1.05215696146342    1.52207930151703    2.98891731904424
N          -0.60310570643626    1.06808868886648   -1.72036701247381
H           0.26327256112658    1.31064759284253   -1.23525623816206
H          -1.51897314356068    0.72654959713336   -0.58189587731819
H          -0.83144252161197    1.81928123310344   -2.35731310460933
H          -0.41853913031589    0.22421673620192   -2.26179366383170
