    23
        -45.35126055  Gyration_radius:  2.40467246967 Dipole_moment: 8.676
 S           1.36722018484337    1.02450530225342   -1.74967897111942
O           2.08030797454701    1.57483109985229   -0.62798591006315
O           1.79829837593922    1.34586861730754   -3.05728998266016
O           1.30597870729572   -0.52981034971651   -1.55523890298099
O          -0.13365679470070    1.41331904439856   -1.61114201331179
H          -0.36173013790168    1.39877709225086   -0.64530270734417
H           1.95448932200242   -0.74956169658975   -0.80395584566467
O          -0.95739159576855    1.32464965452561    0.87563141332035
H          -1.28054262818819    2.19809690148304    1.10183481975112
O          -0.68528497643468   -2.05179270211624   -0.20678301866365
H          -0.10629321654956   -1.71811942553743   -0.90389397721349
H          -0.23194476025786   -1.84989997668395    0.62243919615743
O           2.80843107265732   -0.70214527588750    0.48353822947595
H           2.12553205022681   -0.80671932814985    1.17009907444970
H           2.90478340221903    0.25722425050525    0.35024649440800
O           0.52413142727368   -0.67235693979005    2.00110257571720
H           0.41396064103640   -0.66070894337836    2.95296594368384
H           0.06921857933949    0.11637191514938    1.64981189121366
N          -2.83138949739744   -0.21743939489307   -0.02434725585563
H          -1.76313363166691    0.75857122468671    0.58698765756406
H          -3.12738713177330    0.09412023845899   -0.94078123706404
H          -2.22357665874132   -1.03299025760171   -0.15880852289552
H          -3.65002071799717   -0.51479105052741    0.49055105909589
