    23
        -45.37099094  Gyration_radius:  2.40222104573 Dipole_moment: 3.744
 S           1.58638169860208    1.49993380441046   -0.30920740893768
O           0.44466585463857    1.88438380580769    0.49729095602024
O           2.14104607404138    0.21606107210797    0.09517559723942
O           1.31038079550680    1.57749320079816   -1.73409748971808
O           2.73121032381244    2.56505340369523   -0.01635666803017
H           2.32081277460250    3.38034350244067   -0.28692589091178
H           0.08653325991940    0.62713775659062   -1.84159439202097
O          -0.68897578032225    0.00707426330829   -1.96018487724853
H          -0.98686339545153    0.14314938603353   -2.86215995447853
O          -0.29522336892001   -2.38947601401812   -0.80001228393176
H           0.47032759749971   -2.78204509245037   -1.22309728304362
H          -0.44560686850709   -1.53762816370353   -1.26570931713393
O          -1.24703059043036    0.60510729719270    2.08535630891051
H          -1.95452302461401    0.38775260139312    1.44533419772010
H          -0.69932880806947    1.27301988437052    1.62236557461188
O          -2.65048392871822   -0.29409071317410   -0.04615606693906
H          -2.65945678787978   -1.25171921103681   -0.10881015712122
H          -2.01466808055159    0.00990637768850   -0.71719941120975
N           0.51178107079872   -1.21165283829825    1.51027642608887
H          -0.24701660685155   -0.52614795395735    1.86705508216478
H           0.11541901169117   -1.82240322801341    0.76626609952792
H           1.24726089196668   -0.61025194913484    1.01945455094596
H           0.92335786724242   -1.75100118204884    2.26293638750147
