    23
        -45.35817432  Gyration_radius:  2.34403596387 Dipole_moment: 5.208
 S          -2.04455854756789   -0.24745715259450    0.76606639840309
O          -1.98448563114128   -0.90286797966763   -0.51906839442397
O          -3.23440407067301   -0.39241790216326    1.51538204192776
O          -0.81228702449141   -0.72966745852158    1.58131600357409
O          -1.75811545266895    1.26842246764366    0.57982286072248
H          -0.80045739858017    1.42929445656731    0.36867205547049
H          -0.19927593206322   -1.20049971596286    0.91088154123965
O           0.79319481568830    1.76580355860710    0.28097847422130
H           0.91902506650096    2.66839667818851    0.57859221883904
O          -1.26792972077462    0.28676687616410   -2.78225040846723
H          -1.62587069940086   -0.10574907065926   -1.95942085939329
H          -1.73231260047829   -0.13689387669063   -3.50543654633141
O           1.24326326931504    0.04296026573985   -1.84421704619298
H           1.25640079880727    0.81653778393332   -1.26423292149716
H           0.41779108532199    0.13770125893975   -2.36102949967510
O           0.60239688185101   -1.86997574124979   -0.18660217732269
H           0.93350476734663   -1.17071337001335   -0.82604007979201
H          -0.13251405430121   -2.29015975735461   -0.64407124462417
N           1.97407444714868    0.08348324003581    1.94422186569543
H           2.23272128970982   -0.70547024008760    1.36269692871922
H           1.26552752821341    1.16452056655326    0.93705855384610
H           1.19638933986462   -0.21695268369396    2.52148378961428
H           2.75792184236813    0.30493778629347    2.54519642544484
