    23
        -45.37493203  Gyration_radius:  2.39760939863 Dipole_moment: 1.855
 S           0.35037287945084   -1.28243492411809   -1.32832662401917
O           0.89558134963291   -1.46045584001491    0.01136424748276
O          -1.09211111798628   -1.25944273747026   -1.34921872280031
O           0.94926091806385   -0.12553096089026   -1.98765237192681
O           0.79406186988355   -2.55805446683906   -2.15866198472899
H           1.73656220596028   -2.60290171132289   -2.02423523415983
H          -0.30709646742833    1.05207837153393   -1.71539960795409
O          -0.99749618711252    1.52499881293633   -1.21077336963763
H          -1.76470244448420    0.94636812948735   -1.25363883353180
O           2.54450255377504    1.58833955302282   -0.63262320447537
H           2.76560904641416    2.29392249817828   -1.24207902713001
H           2.06245438407503    0.92153050792592   -1.16201266138571
O          -1.01456685033023    0.32024258241964    3.10750395663300
H          -0.67040360942381   -0.40372291350786    3.63364470048985
H          -1.58332115576526   -0.09023617766497    2.42591168344815
O          -2.23881635515860   -0.90689960907516    1.01523350338522
H          -2.97440929404293   -1.52054869954624    1.02902596553046
H          -1.77687576160161   -1.06712966074510    0.16393101221577
N           0.46854135501549    0.94851364802669    0.96435945163521
H          -0.21739365741386    1.31137276572079    0.25662363720267
H           0.67105054785490   -0.05346927596070    0.69134068676033
H           1.34640531459874    1.46889864434836    0.84770904000152
H           0.05279045601515    0.95456146353328    1.91797374696329
