    23
        -45.38069738  Gyration_radius:  2.31448538259 Dipole_moment: 0.673
 S          -1.82637785891236    0.21512036364636    0.59111171784691
O          -0.69749809842361    0.00297586568932    1.48747345153081
O          -1.92203768282755    1.57598867470966    0.11245268000259
O          -1.85008133329458   -0.75939244656600   -0.48977297676620
O          -3.11469553543575   -0.05515537017256    1.47394133964168
H          -3.81249404376495    0.22386534459963    0.89034089046580
H           0.69036389943175    0.82738870973417    1.19066962859416
O           1.54176140073323    1.26499110844870    0.94884761808570
H           1.83754048679539    1.72342021000880    1.73657250530770
O           2.27481985636218   -1.06585254950714   -0.37631803184072
H           2.28424411148705   -0.22869881652771    0.11716595593142
H           1.79096021745302   -1.69412961507531    0.19584095894504
O           0.22734893723411    2.17589030742059   -1.31269215084121
H           0.87864165052542    2.13429205169073   -0.59402692397854
H          -0.64139277915931    2.12372798334516   -0.85701259924746
O           0.50233035613321   -2.34888144940614    1.18591841416358
H           0.48133190194427   -2.79806830996960    2.03158751060715
H          -0.03679107972187   -1.53733140489557    1.29155886915435
N           0.28257686373980   -0.37119221724993   -1.95517391758926
H           0.30870836989444    0.69144547561531   -1.89356050701312
H           0.25707215650974   -0.69919705120412   -2.91381885378766
H           1.13356273263429   -0.74346627259861   -1.43119474779182
H          -0.58989451929879   -0.65774057173507   -1.42991083142289
