    23
        -45.36583962  Gyration_radius:  2.24902645824 Dipole_moment: 7.836
 S          -0.05508467383151   -0.49669364088318   -2.02364102339576
O          -1.07141723865672    0.20339430962938   -2.75618279733387
O           0.96287112970277   -1.16887008453930   -2.77640946313916
O           0.73529414562875    0.67569288063494   -1.18730086129942
O          -0.58954692859719   -1.30616738208165   -0.91322613268717
H          -1.52346842398512    0.03863453002442   -0.53334376618712
H           0.86694687201791    1.38050615674586   -1.81452674019067
O          -2.02109932122497    0.83521981231162   -0.25512192529332
H          -2.32221317455251    1.19267537412555   -1.09610980926004
O           1.93664133787980   -1.67645811013272   -0.25946468232789
H           0.99364172227119   -1.79441549453419   -0.49025096575663
H           2.32936729735836   -1.49612186475890   -1.12097292894452
O          -1.19364654619628   -1.24203281831749    1.71270563827277
H          -1.05024742246002   -1.55571482242708    0.79986828815318
H          -1.91273452123239   -0.60707027529395    1.63445075411557
O          -0.17203417863249    2.30796279538394    1.00476583337691
H          -0.66968263058707    2.78297711783153    1.67239630059587
H          -0.83669114855703    1.83219857605385    0.45088186974593
N           1.14207008458044    0.03199194413430    1.60986404521698
H           0.83782899805294    0.98045734622222    1.28617185175702
H           1.60194867171487   -0.49978413019183    0.81570663085069
H           1.75704569613524    0.08540784885800    2.41468042600696
H           0.25421026352747   -0.50379007962230    1.82505943821729
