    23
        -45.37063903  Gyration_radius:  2.3565099586 Dipole_moment: 5.961
 S          -2.01446629238572    0.04081494886615   -1.04682269958458
O          -1.67480407458349   -0.37288574125917    0.31924881183143
O          -3.30155249478760   -0.38410232071696   -1.49024540270698
O          -2.05294255295776    1.64742584742097   -0.99815585760868
O          -0.90417622682392   -0.25441785341185   -1.95003052852406
H           0.21784673547132    0.72004973836585   -1.47251193169268
H          -2.98055532656545    1.82728613419763   -0.88669995355193
O           0.99445614209112    1.25818890333441   -1.14412566276677
H           1.20727436968266    1.86505324019456   -1.85399897111917
O           1.38639296262048   -0.08680235592302    2.65441315636013
H           0.80699012772628   -0.66617074021033    3.15261677803339
H           0.79731444726020    0.64190660968499    2.30512851286269
O          -0.13470997929473   -2.32972127210583   -0.43400507317235
H          -0.29631150661934   -2.07063211245691   -1.35238414981235
H          -0.78488470252584   -1.76570022173753    0.04644141798823
O          -0.21750099153335    1.54063405541699    1.40689639566793
H           0.21673027624718    1.84401236035510    0.59917231175811
H          -0.86776856168615    0.87587308588409    1.09157659136176
N           1.95127750752970   -0.87455366749362    0.20547383809419
H           1.17276048809561   -1.56665195453300   -0.05564085603585
H           1.77739968841645   -0.01020012637208   -0.35087285761409
H           1.82872121075453   -0.62415559969663    1.23322924924528
H           2.87250876386359   -1.25525097781193    0.02129690098839
