    23
        -45.38321882  Gyration_radius:  2.2583439664 Dipole_moment: 3.077
 S          -1.06219522841328   -0.49916910117362   -1.49908161395708
O          -0.65282463249605   -1.62650827613161   -0.66474642061231
O          -2.16741650113353    0.24353140989432   -0.94935458756858
O           0.08360515063385    0.34149623064577   -1.83617113611285
O          -1.57280167769606   -1.12342189892506   -2.86004255458542
H          -0.83083192106840   -1.64348627075375   -3.15038547277035
H           0.44232549978025    1.59805456905713   -0.72091702317589
O           0.64477798665272    2.08536313157004    0.10592537627465
H          -0.19591175943166    2.11113607305708    0.59380396467684
O           1.94185408687202   -1.32496511529499   -1.00271195189712
H           1.12733953794276   -1.81917662647296   -0.79288973667899
H           1.58225070714779   -0.58718333808472   -1.53078598490649
O          -0.48256569252133   -0.93106135151966    1.90815643042589
H          -0.65165581809914   -1.32802074396348    1.02733982093252
H          -1.03413942896989   -0.13070492143834    1.93272497042004
O          -1.74832444746306    1.43772076726525    1.30219178472816
H          -1.97635435642936    1.00518196439670    0.43830475886802
H          -2.53847633430611    1.90267546238591    1.58156701175146
N           1.85407669275686    0.06025391662328    1.25008584027737
H           2.10919496426450   -0.53606877842795    0.41329327937875
H           2.62172284386453    0.16415795227808    1.90264795622791
H           1.51210890070101    0.99358455362694    0.86054085215193
H           0.99424140741665   -0.39338959860762    1.69050443614355
