    23
        -45.36060974  Gyration_radius:  2.33411703894 Dipole_moment: 5.456
 S           1.20030515781996    0.93791783894669   -1.26093804770485
O           1.41577593232820   -0.13345445014751   -0.26809449958929
O           1.21953278141441    0.45241159521646   -2.60432025702173
O          -0.05845579981691    1.63191418522719   -0.90838195826469
O           2.34485297247971    1.98411123451773   -1.07466565580923
H           2.28437437264101    2.26521908428164   -0.14265310617543
H          -1.16404829800024    0.79249994633645   -1.11864399044064
O          -2.48555125379002   -0.69902194644866    1.13490206358303
H          -2.94375017626224   -1.54108409199379    1.15895681084516
O          -0.08428549440415   -1.75581238175609   -1.73508023957467
H           0.26283294294150   -1.49564731908152   -2.59813532009958
H           0.56400251545533   -1.36200199801709   -1.11230231237897
O           1.41177825781751    1.95275537623190    1.43864350021545
H           1.46566747100591    1.05252267397087    1.07849790636938
H           0.56294079475836    2.29295263872101    1.13583417181597
O          -1.86792699347055   -0.01050755616426   -1.22195247823755
H          -1.26713380265704   -0.79797582385919   -1.50297450422408
H          -2.19923803778496   -0.23260687689047   -0.26301196569508
N          -0.04491948412600   -1.10525824769442    2.02359824056528
H          -1.57109891704032   -0.84829474995281    1.53910868396962
H           0.53273972577763   -0.87780330465528    1.21432531132209
H           0.21400012280780   -0.46396942841895    2.76409746353010
H           0.20760520010741   -2.03886639840047    2.32319020300823
