    23
        -45.37694066  Gyration_radius:  2.37954575358 Dipole_moment: 2.234
 S          -1.78351591895744   -0.28589705958740    1.12136691954810
O          -2.46200166831079   -0.88063814333284   -0.02504760804803
O          -0.99438428410922   -1.21139512490117    1.89017053159468
O          -1.00693310329073    0.88680374092906    0.70835778766541
O          -2.93643922608195    0.25129055976211    2.06722100921980
H          -3.57727436514755    0.58345784282791    1.44597250864144
H           0.54102787884532    0.77057596347234    1.18819328982033
O           1.49906096895205    0.64461009304779    1.40686169433292
H           1.54969835869270    0.66816162393739    2.36354938541687
O           2.50706907897293    1.75648214465239   -0.87476009946896
H           2.25189420641792    1.47916974132091    0.02305803750507
H           3.26257959541494    1.22176852211786   -1.12253668802092
O          -0.04324933194964    1.42817328089950   -1.77171627099667
H          -0.49002009596515    1.48837286130915   -0.90723400324220
H           0.88542412373943    1.67545236776544   -1.59510036713230
O           1.09586688008703   -1.86149763335795    0.39568425035831
H           0.34075840266476   -1.88974637740520    1.02005573887267
H           1.56630728349257   -1.05627811863005    0.67382472132373
N          -0.43284512900660   -1.15348433940239   -1.63510404730889
H          -1.34614828464129   -1.12620564987633   -1.09571909907322
H          -0.50492346571670   -1.73273767692598   -2.46401988879423
H          -0.20902818837239   -0.13361523745894   -1.86573980388441
H           0.28707627427224   -1.52282339115044   -0.94733800832788
