    23
        -45.36606627  Gyration_radius:  2.47360288948 Dipole_moment: 5.059
 S           1.25139259217045    1.86070464227687   -0.04535192842175
O           1.53490114455973    0.70808245895857    0.82048869215303
O           2.21925839695477    2.90612837088522    0.02289871223922
O           1.38881847569375    1.25368745303166   -1.54855223145564
O          -0.14268703125223    2.24904791684690    0.06476499227805
H          -1.36220947032489    1.32697327181333   -0.19227652826265
H           2.21290141204446    1.66446868345963   -1.78480625534208
O          -2.10561631280878    0.66375725980517   -0.31099154370341
H          -2.91325270684288    1.14595887139848   -0.12969757323727
O          -0.17520531087383   -2.78771533882859   -1.18511853833545
H          -0.76329920552165   -3.46440354809769   -1.52181614693042
H          -0.28727568710958   -2.00147679596563   -1.77389970567018
O           0.64675382285515   -0.22392425722091    3.26777886761909
H           1.10491101480374    0.23615784455375    2.54394806990998
H           1.06982936863097    0.06108732952115    4.07807022828431
O          -0.65672734935538   -0.47653456129356   -2.40138446185162
H          -1.34867570159691   -0.08171955810851   -1.84795521577974
H           0.11199128674049    0.09953458018598   -2.29008638764307
N          -0.37341926450716   -1.05559889962188    0.85307641449134
H           0.44848920686466   -0.38262075632860    0.72929607214588
H          -0.25279551891302   -1.88392732960922    0.23152476843271
H          -0.38489681494295   -1.28631758118938    1.84755983081430
H          -1.22318632726772   -0.53135006648243    0.57252986825732
