    23
        -45.36491607  Gyration_radius:  2.32642204552 Dipole_moment: 5.045
 S           1.45871055379819    0.41346156512172   -1.16326731271004
O           1.37577983489957    0.72184323274538    0.25625641983028
O           2.61963490717230   -0.28748360439385   -1.57335844450754
O           0.19925711223638   -0.36360738425757   -1.56477109316173
O           1.34392179450162    1.73871808115431   -1.94895992230498
H           0.44670902122957    2.13186549026688   -1.75177269856711
H          -0.60604472282056   -0.28125219534297   -0.90231778108548
O          -1.71301320635232   -0.21041362081013    0.04967270251333
H          -1.50090935081147    0.45617088552672    0.71984442822768
O           1.79983590168468   -1.95053482717389    0.57886369216774
H           1.76266559840599   -1.00227159475207    0.76070159498910
H           2.30316059564196   -2.01568339425468   -0.23814815547339
O          -0.60698674019942    1.96408758080989    1.39140027171041
H           0.21789042403928    1.53024014623706    1.06597655549118
H          -0.35339156702307    2.51798416736233    2.13102897412659
O          -1.04990907808202    2.46336004089678   -1.24386491148547
H          -1.65971951923677    1.75590815824754   -1.47480726996228
H          -1.01460181202909    2.48227316669347   -0.26815793599464
N          -0.99988463889735   -2.50952262018596    1.09687239275455
H          -1.55655575724821   -1.10803052050630    0.48645278634393
H          -1.13012289519501   -2.69329794703116    2.08383301279158
H          -1.34159043981067   -3.31268615820353    0.58435327859261
H           0.00516398414773   -2.44112865810694    0.92416938575047
