    23
        -45.37179159  Gyration_radius:  2.44551641643 Dipole_moment: 4.816
 S          -1.37181338273928    0.31168162258217   -0.71556098457380
O          -0.85544598865690    1.26624938400751    0.27668892792599
O          -0.44885102657313    0.13390548368451   -1.81397247487436
O          -1.71117976841741   -0.95318413337094   -0.06473316403249
O          -2.69282305070147    0.91910620858899   -1.29718466704986
H          -3.26679803619288    1.00988656026777   -0.51051788642359
H          -0.28946856816284   -1.69985960340642    0.02658484720069
O           0.65230987132337   -2.01445059640337   -0.01350460815942
H           0.74091072212154   -2.40180548111354   -0.88681857037189
O           1.84545533531391    1.39502163598278   -2.22864819742140
H           2.18974483039449    1.15388584758517   -3.08963693359784
H           0.93289615887640    1.03043486096194   -2.18837716973962
O          -3.36416257400023    0.74641031708811    1.26640945805083
H          -2.56251641307208    1.26929689342058    1.39905914906580
H          -3.04243653729661   -0.15526010842539    1.12064511326379
O           2.02291604933175   -1.20891502847487    2.39985633210960
H           1.55837471948877   -1.75846662110269    1.75533934857335
H           1.72869229707450   -1.49671915640549    3.26497388929666
N           1.62401267499553    0.50629718780719    0.27257637218257
H           2.18089155839157    0.54561216822652    1.12534538013770
H           0.66584553823820    0.95959776599566    0.39311792384349
H           2.06064761301268    0.93857444673320   -0.56257868055961
H           1.40279799726034   -0.49729966423547    0.07093659513971
