    23
        -45.38252906  Gyration_radius:  2.27561948901 Dipole_moment: 2.967
 S           1.67583888049955    0.89877922830528    0.16402835832007
O           1.64654096646355   -0.48696817628742    0.62254733594556
O           1.91528214206183    0.97418902186513   -1.27102426416428
O           0.52028770123262    1.65569989716412    0.59240488669870
O           2.92917756598332    1.57282137565171    0.85984719945376
H           3.66857735580337    1.13577483316913    0.44859759683447
H          -0.10454572877269    0.85893123874070    2.24001503976090
O          -0.12252511261516   -0.06054941537225    2.54353959418475
H           0.62754752294481   -0.44836299567015    2.05477495030891
O          -0.10732099293795   -2.10723257020550   -0.59617228702873
H          -0.87987210227456   -1.93023736103247   -0.02981572499192
H           0.64495083483591   -1.69077243216117   -0.12775207652573
O          -2.04626988858941   -1.03045146932477    1.04574257656852
H          -1.36395689729949   -0.68749824660633    1.68825151740039
H          -2.74531055711397   -1.41600748569422    1.57494733585820
O          -1.83700826893102    1.18062366277830   -0.59666774054686
H          -2.12705202863166    0.44345034724650   -0.03015480175958
H          -1.06516679134728    1.56277032172506   -0.13300397100451
N          -0.25431943997573   -0.08802392976915   -2.25316176202207
H          -0.39598157021618   -0.15927965988628   -3.25415034522200
H          -1.01388022822095    0.47801880985667   -1.76437947719256
H          -0.23017441903267   -1.03614265778023   -1.76580062036016
H           0.66518108612902    0.38046767329262   -2.01261331051991
