    23
        -45.37436769  Gyration_radius:  2.41594684179 Dipole_moment: 3.692
 S          -0.06906903409963    1.74431973913420   -1.12518259261594
O          -1.01258259702788    0.73034302917384   -1.58559352519724
O          -0.46160217016159    2.35919101530211    0.12303761577525
O           1.29256623280998    1.22142151214018   -1.10116974086625
O          -0.08978546252619    2.90151570261194   -2.21068523429112
H           0.16685259062316    2.47169100217340   -3.02104600813008
H           1.29769018753355   -0.83018494600033   -1.33278294268581
O           0.49149600332153   -1.35390807590511   -1.23370133469222
H          -0.20622302150879   -0.70828041480316   -1.50116992348382
O           0.21538745899181   -3.54048955836036    0.62623811375393
H           0.32836035945545   -3.07996459912237   -0.21585288984195
H           0.19214552384242   -4.47649551452740    0.42543161071550
O           1.61026876711695    1.23159316310345    1.51873689010431
H           1.71359461194861    1.24107896198556    0.54176696225163
H           1.02437860349930    1.98019470300851    1.67908206375953
O          -2.21500823593468    0.56992871051770    0.90351301532879
H          -2.45951362993305    0.30128419942346    0.01057251274119
H          -1.68842145318305    1.38537657782102    0.74964828902446
N          -0.02680430643226   -0.84358077971228    1.38053240070056
H           0.00173667227768   -1.66579510963655    1.97833371296831
H           0.19641493940858   -1.14692391280093    0.40051404568620
H          -0.98341188383797   -0.39050573677344    1.34958565652291
H           0.68152985382973   -0.10180967875954    1.64019130247786
