    23
        -45.38497592  Gyration_radius:  2.25781385889 Dipole_moment: 2.536
 S           1.82017951331163   -0.37470086011106    0.19930255712636
O           1.31577092553783   -0.51745230516907   -1.16541440205104
O           1.38098201304383    0.85604830212957    0.82257827956851
O           1.55468880475024   -1.55963098080779    0.99254290145235
O           3.39511969690290   -0.26397687838932    0.07422961584438
H           3.63348853644013   -1.14356242602936   -0.19865287865049
H           0.00426903896056   -1.76315496075190    1.29878903287907
O          -0.97902797552284   -1.83473723062460    1.42634872096777
H          -1.11587591556559   -2.59158515457822    1.99838506998057
O           0.71752667955620    2.02431544168276   -1.47967258178449
H           0.99856254570886    1.10972065789935   -1.68546398182381
H           1.07614665696964    2.14024373860093   -0.58641560306770
O          -1.23648542995424   -1.27904113725054   -1.25560047497194
H          -1.32972231036166   -1.66030258195713   -0.36609083898286
H          -0.27260341116862   -1.13207499843214   -1.36122898207307
O          -1.12207398142251    0.88889114091286    1.74212578047924
H          -1.25503080385659   -0.07052013484474    1.83257324068742
H          -0.15940685813370    0.98407312592298    1.58701762913513
N          -1.71951902627252    1.26003603511552   -0.78870398682972
H          -1.62782341936644    1.23518229611118    0.27310831086252
H          -2.55720546804078    1.73768933665876   -1.09887321435695
H          -0.83436770704254    1.71319082432527   -1.16108261084369
H          -1.68759210447867    0.24134875958844   -1.09980155355013
