    23
        -45.38134546  Gyration_radius:  2.27221507139 Dipole_moment: 3.513
 S           0.87397051266023    0.88435989830343   -1.24326645071609
O          -0.39666929180027    0.89122445034326   -1.95374996767550
O           0.81561067251481    1.55262114235024    0.03384481824770
O           1.41175340354082   -0.47314835921120   -1.15434645358571
O           1.89308158917885    1.70350891520205   -2.13523179277049
H           1.83802048672466    1.26220659636528   -2.97665135334156
H           0.01553641307832   -1.36039045145122   -1.09868889326946
O          -0.91796874518209   -1.66939116439855   -1.05526972885214
H          -1.35002183641498   -1.14664924803692   -1.73911812634410
O           2.13399629788823   -1.75660953090012    1.07274949039642
H           2.01071707203129   -1.26256862358131    0.23690921704537
H           1.94644244968919   -2.67395122770620    0.86722926321519
O           0.60885110644880    0.10547652348548    2.26953406786178
H           1.22978104535026   -0.62418299724599    2.07253158335337
H           0.81162069484672    0.77705161919618    1.58669042110598
O          -1.91323649113962    1.88974486958888   -0.06371424572840
H          -1.22825471336257    2.41443348540655    0.36476855682330
H          -1.47282035820285    1.57742754035133   -0.88763328153999
N          -1.68919579970047   -0.43691286079683    1.17954047564115
H          -1.93714888914037    0.50800004120050    0.76377635952617
H          -1.45697511477464   -1.06518677337400    0.36479368137837
H          -0.78561044809434   -0.28509488436364    1.74960233889088
H          -2.44148003608115   -0.81196898072359    1.74570001036370
