    23
        -45.37254413  Gyration_radius:  2.26129617467 Dipole_moment: 4.911
 S          -0.52196027350450    1.69221757741918    0.03814677548866
O           0.12010588058099    1.11979056422841   -1.14660099126513
O          -1.90868564854843    1.97654198586440   -0.13152131949256
O          -0.25997510548256    0.79217198915701    1.18936187485252
O           0.23846319670632    3.03108468374120    0.35689172549112
H           1.16461831111924    2.76042947773154    0.43991405942071
H          -1.59792839434687   -0.16805385308269    0.63537056498032
O          -2.24665380788549   -0.78983380030922    0.25963226810751
H          -3.00919521024701   -0.23500698670333    0.07410271453631
O           2.29336080197248    1.34530383791025    1.02194340912033
H           1.38761569832270    1.02059564734603    1.20409640561270
H           2.71520849192316    1.46616079768201    1.87498588992963
O          -1.15970556037613   -1.37016330428304   -2.15314148036123
H          -1.67340823950821   -1.31644391906510   -1.31922285087868
H          -1.06237294165807   -0.45225466705216   -2.43103265128195
O           0.33894311114342   -1.79945631604009    1.55562147670339
H          -0.52038761704569   -2.22480127994630    1.48338611391552
H           0.13858840535646   -0.85034483602857    1.66636454662270
N           1.15499164232494   -1.22644713577923   -0.92441929902832
H           0.38183512367350   -1.59915681573412   -1.53566144326510
H           2.08607563787973   -1.42795607211166   -1.26953892363444
H           0.93744161450918   -0.17683671346715   -0.94747557442557
H           1.00302489309518   -1.56754085147137    0.05879670885063
