    23
        -45.35801808  Gyration_radius:  2.42938962124 Dipole_moment: 1.780
 S           0.35786984775758    0.85582455416902   -0.57956432806564
O          -1.02454928648349    1.16882267902435   -0.86659648439839
O           1.27411379920210    1.94654914722074   -0.64361366404666
O           0.41588359182555    0.22288229929384    0.84411122495708
O           0.79510684119287   -0.30041396747519   -1.46910672292479
H          -0.13276545117936   -0.85852727791827   -1.66642967242358
H           0.62001015347172    0.98352116649598    1.48490108074994
O          -1.39244682054791   -1.39209852531404   -1.66429182952627
H          -1.84495368148887   -0.55795918594406   -1.47027442081809
O           1.75320680027640   -2.79665115567055   -0.52397412122579
H           1.63167448806653   -1.86837977586620   -0.76581922921479
H           2.00107590796223   -3.25344261844385   -1.32982902669801
O           0.90630866478604    2.37284984747180    2.10907114441461
H           1.65841145180276    2.63534166521258    1.56773290040271
H           0.13854339029168    2.87108783348870    1.74141081682657
O          -0.99128232421918    3.44153262901755    0.56807922069844
H          -0.54135919177679    4.04370750279605   -0.02932975147663
H          -1.19050044170324    2.64989093490234    0.03568114000375
N          -0.91211232640538   -2.49748956252295    0.63500551892163
H          -0.01016349063775   -2.92074831558867    0.42184417265576
H          -1.34174572419623   -1.91411942484497   -0.78554740171783
H          -1.45378476334534   -3.15234481804596    1.18390361664892
H          -0.71654141465139   -1.67983564144240    1.20263580616805
