    23
        -45.38009225  Gyration_radius:  2.28807295817 Dipole_moment: 6.352
 S           1.12322399497214   -1.06550124439606    1.07342353259130
O          -0.20760206688492   -1.62095129678420    0.78274021297974
O           1.81889971175857   -0.65426135983713   -0.11640655015377
O           1.02556925337332   -0.03941916423759    2.09797024255831
O           1.95324318067538   -2.25110628088942    1.70832951195728
H           1.54436502976164   -2.35300228833724    2.56142735531889
H           0.32340546240303    1.32695098348687    1.68014127692812
O          -0.19728686135236    2.11320649587192    1.36260390478162
H          -0.10360716018909    2.78548040744806    2.03903723392280
O           0.11480539629321   -1.88730200123029   -1.88799073426623
H           1.03771686731493   -1.61005914545518   -1.87497983734875
H          -0.10218020028707   -1.99553224217167   -0.94582167078824
O          -1.12334813401171    0.44860147966506   -2.28737929341066
H          -0.34008562620207    1.02331195503122   -2.11488026382547
H          -0.74813846657583   -0.45950698456578   -2.36635399643053
O           0.96297561536603    1.67156333439351   -1.19114360361372
H           1.42694151268530    0.87358193045017   -0.87650586757337
H           0.64287800425548    2.10996353186438   -0.39209805096881
N          -1.86349010366522    0.32387538856471    0.16633443573116
H          -1.29512197931056   -0.50802692972966    0.48579407449381
H          -1.47263663509505    1.15641364757130    0.63945187278996
H          -1.67273519725488    0.41092711081667   -0.91820700187517
H          -2.84779159801156    0.20079266225179    0.37451320556379
