    23
        -45.36357854  Gyration_radius:  2.30359892683 Dipole_moment: 5.800
 S           0.67164352207314   -0.22286348349912   -2.06415828504303
O          -0.63895358758420   -0.29010512593148   -1.43929748697890
O           0.82848972856492   -0.95815105078162   -3.25991247319786
O           1.02609302445669    1.25480324552834   -2.27683322031185
O           1.70958467707440   -0.73864530391529   -1.03269710537825
H           1.62139527034207   -0.27921596165263   -0.14053357742799
H           0.76631878367759    1.79455956568290   -1.44986257442651
O           1.51032282459704    0.38041550998463    1.27534653702042
H           2.23484954778017    0.06944648665173    1.82016032097670
O          -2.04592074894064    1.24876258919599    0.18126605943644
H          -1.62548855351155    0.60499546309490   -0.42827715937627
H          -2.82063092575406    1.58176445953936   -0.27461627519576
O          -0.50459888992259   -2.63632631528678   -0.10783334799791
H           0.24657113768002   -3.08636596055252   -0.49770060418865
H          -0.67303664887692   -1.86365549755298   -0.67389597150528
O           0.37794678919931    2.42836625870011   -0.11285121483818
H           0.90514749188580    1.92641967206550    0.52909593664554
H          -0.55216301244478    2.17936201911399    0.06669546534004
N          -0.67818026829928   -0.71631964629445    2.04572360290887
H           0.64061907076251   -0.05512645241428    1.64613722351976
H          -0.71711750082341   -1.55277429751257    1.46277242965813
H          -0.87189576675344   -0.97916753169243    3.00293761595054
H          -1.41099596517659   -0.09017865246222    1.72833410442311
