    23
        -45.38014079  Gyration_radius:  2.28505780084 Dipole_moment: 4.841
 S          -1.35370748831361    0.07313913033258    1.30164821251725
O          -0.40268906312330   -0.93939794430138    1.71470222582717
O          -0.72157052546082    1.34050029400987    0.94885287579011
O          -2.24422317860513   -0.39657317908244    0.25544565836243
O          -2.24849717276689    0.39169336831616    2.56637905592657
H          -2.53446557915861   -0.47503191136993    2.83547633178684
H          -1.67818576105386   -0.68231186104398   -1.19815420181487
O          -1.23833287124456   -0.80621418243929   -2.08273544572391
H          -1.92234885518913   -1.11421173266818   -2.67885811440706
O           2.49202053879592    0.14399616792943   -0.63180081407930
H           2.45978027092683    0.42363085532624    0.31310587996567
H           2.10179409742332   -0.76161174263840   -0.62690265467545
O           1.74689635072682    0.75251959624738    1.86095358052269
H           1.43979422860208   -0.11268644357075    2.15856110657266
H           0.92030761252217    1.21700283131855    1.64706795327705
O           0.83377211132346   -1.92373428543284   -0.47003230116620
H           0.16373397775366   -1.80682300181521   -1.15500578110158
H           0.39508320257276   -1.69847027962676    0.37258001590780
N           0.35282030690566    1.30001424780052   -1.45515856386399
H          -0.19807205028644    0.58590087784584   -1.96405966492854
H           0.42755865386575    2.16400390620697   -1.97980417609281
H          -0.13035212056099    1.45118536388471   -0.53052284560833
H           1.33888331427451    0.87347991476384   -1.20173835299694
