    23
        -45.37711200  Gyration_radius:  2.38509456395 Dipole_moment: 2.321
 S           1.88771092316699    0.15963262434984   -0.92145160895191
O           1.59412508180161    1.57046169439659   -1.06104808166406
O           2.59691167606325   -0.14332017319469    0.31516479019152
O           0.70875087107158   -0.67627761396662   -1.09875457564049
O           2.86785549733581   -0.23218582984654   -2.10587028942458
H           3.64376110844396    0.28864777518190   -1.92203524478743
H          -0.66727666389992    0.14943705926583   -1.36281074004663
O          -1.51217266597411    0.66272615264554   -1.42317315851481
H          -1.51795157466052    1.05321404589220   -2.29815202412792
O          -0.64241847123986   -2.11816199667103    0.78587547167953
H          -0.14042808845779   -1.89585955936981   -0.01765656524169
H          -1.57240573614214   -1.90397176374883    0.57395571455446
O          -3.03569287892809   -1.05108362326658    0.05245726772071
H          -3.59041797102046   -0.50776783880899    0.61381195946167
H          -2.60938454634988   -0.44948573879075   -0.58501257417931
O          -0.34692023039558    1.98786409257283    0.68034410701465
H          -1.04059196505467    1.68383434308161    0.07182123411165
H           0.44075080191959    2.05068806151980    0.09642465572180
N           0.58078156322277   -0.12527410985637    1.96085897462887
H           0.01713819949874   -0.97723514706172    1.64530131483052
H           0.11154051721891    0.75846757126903    1.60630187578580
H           0.72845573417829   -0.10739846207314    2.96371962880106
H           1.49787880820104   -0.17695154352500    1.42992786807807
