    23
        -45.36179363  Gyration_radius:  2.31364812909 Dipole_moment: 6.221
 S           0.34431852949898    1.99978582816306   -0.17412602760990
O           0.15445329245697    1.61516953656562    1.21070325036210
O           1.05296647550818    3.19766215149954   -0.41468148661094
O           0.99507233755017    0.80964770728780   -0.91425755732999
O          -1.05052759590793    2.09697926059715   -0.84830844247433
H          -1.49152038114425    1.20586242473242   -0.81228742335147
H           1.07103355623903   -0.03609355524716   -0.31954234530747
O          -2.14868824094280   -0.26695957533599   -0.91071000019917
H          -2.91331551420408   -0.22895012656737   -1.48804186300387
O           1.14314655153307   -1.24442235955909    0.55196954679774
H           1.77337508925297   -0.89678147561339    1.21427953930197
H           0.26636890359792   -1.22466426387196    1.01509786247905
O           2.26780251228241    0.39119037166297    2.35607968716511
H           2.18113066262252    0.37561287409944    3.31082555342379
H           1.57542717854900    0.99457202742432    2.02682264171270
O          -1.18272922703995   -0.67616341765855    1.67081976363115
H          -0.84004530631564    0.23451470594884    1.72457308237309
H          -1.81063237300481   -0.67022050440521    0.93727122569213
N          -0.22683472880028   -1.61708863022142   -2.10390517836024
H          -1.44795193240552   -0.82222682572084   -1.38360587188092
H           0.30138472548865   -2.03212543895901   -1.34327449902805
H          -0.36817355063764   -2.32378448375357   -2.81484554599599
H           0.35393901572100   -0.88151622109531   -2.49085591180610
