    23
        -45.37694067  Gyration_radius:  2.37971136222 Dipole_moment: 2.235
 S           1.76483701129947   -1.02372960569468   -0.59973478451547
O           2.61204494372284   -0.06647435538690    0.10312875356151
O           1.26713410835538   -2.09324096134189    0.22426445614200
O           0.68655702050978   -0.33127805739897   -1.31156489534654
O           2.68871039349627   -1.67492312800157   -1.71095510019396
H           3.21774134476203   -0.93792531880975   -2.00063473836987
H          -0.76949269821969   -0.93252225927880   -0.91489576012183
O          -1.65348864526216   -1.24669084733809   -0.59632790301148
H          -1.73271840153351   -2.14983510504692   -0.90682305619619
O          -0.33950019618488    2.12017131853591   -0.75393893466439
H           0.05073311513650    1.34940891212819   -1.20581287341545
H          -1.30358278775549    1.96114593409596   -0.76750768194376
O          -2.89291389101324    1.18664393815297   -0.60057145874575
H          -2.58745060476813    0.26768120984354   -0.70257896635241
H          -3.44846844617416    1.20591594440915    0.17993322368450
O          -0.50881790020434   -1.02311871943151    1.87487424511526
H           0.20790808965104   -1.56992501605212    1.48987483741934
H          -1.20116683330584   -1.07634974323438    1.19314279785040
N           0.78687548185652    1.23223784792101    1.43201747808286
H           1.64052108493384    0.79462296164522    0.97861906668683
H           1.04288853374609    1.84839943417285    2.19530074019896
H           0.27894548961715    1.74567683394264    0.64343593981103
H           0.19270378732927    0.41410877217323    1.75675462432256
