    23
        -45.37272118  Gyration_radius:  2.39230925946 Dipole_moment: 4.309
 S          -0.61270906760063   -0.60209480633322   -1.03541014226387
O          -0.12794989664819    0.76255969883378   -1.26124074812496
O           0.05372182145097   -1.58115184095126   -1.85875113795580
O          -0.49299879596949   -0.93791316847204    0.39547196579383
O          -2.12423379148756   -0.62227177914709   -1.38915158993100
H          -2.49166511815316    0.21687021227290   -1.01589024929952
H           0.71823782539116   -0.41158505585559    1.43441877895856
O           1.35591500019777    0.13534866302751    1.94918788488963
H           0.80678439262151    0.77345857891557    2.41249650762661
O          -1.81714041894003    0.59354465525541    2.02058430818960
H          -2.28433007404925    0.00593585185112    2.61717847811200
H          -1.31672643847797    0.00228439604043    1.40034317521616
O          -3.16430756717544    1.44119731882545   -0.14111966596878
H          -2.68769908430413    1.32309304149880    0.70941694406950
H          -4.09421900854759    1.27981877693844    0.03218917593012
O           2.61621564775361   -1.71683813969684   -1.42758636775634
H           2.70194531334707   -2.44710017111019   -0.81168593087427
H           1.66663328880943   -1.72761883913109   -1.71481253276331
N           2.29648468277853    0.72815448365745   -0.46225384982837
H           1.30048151519854    0.85996649318060   -0.87097820922152
H           2.15417501593315    0.63436110420874    0.57191925029945
H           2.62445823680764   -0.19862239962060   -0.84433551661224
H           2.91892653112474    1.48860291605163   -0.70999053844978
