    23
        -45.36842383  Gyration_radius:  2.42199911076 Dipole_moment: 6.513
 S          -0.84169217713102   -1.05788213890578   -1.96379605535322
O           0.26848675621391   -0.16933907576807   -2.32289021330733
O          -0.74052591649575   -2.38009202113708   -2.47625115756664
O          -1.01854214163408   -1.02236983157890   -0.49060077808463
O          -2.14187397630790   -0.37416499196614   -2.54558903063214
H          -2.11709782342558    0.50778532468851   -2.16299476570248
H           0.14831230262987   -1.56627127248307    0.40805835109714
O           0.95319870263293   -1.79615725593697    0.95398867213665
H           1.04997912467831   -2.74616052079443    0.87321249458705
O          -1.83053579565232    1.40413612668505   -0.33512715957732
H          -1.52211880135966    0.46143757107266   -0.29401532307786
H          -2.64153481913858    1.44070536149566    0.17595057874105
O           0.20184318361197    0.10972555403000    2.84305053632831
H           0.39577806455393   -0.64351414048676    2.25988568612627
H           0.60489597354202   -0.08135573955593    3.69061793988982
O           0.41565730780925    2.13260053804677    1.02135439443458
H          -0.41825229308839    2.08131259253734    0.51274638802341
H           0.27369077261994    1.57001103973245    1.80492607864089
N           1.82701011386686    0.43198720775415   -0.38571059894414
H           1.34239522103073    1.21217377043426    0.16942701089864
H           1.82366929353258   -0.42757177974093    0.18532974227904
H           1.20453501250549    0.21869332187968   -1.24839183196752
H           2.76272188500320    0.69431034998238   -0.67318096897076
