    23
        -45.36031497  Gyration_radius:  2.61173872901 Dipole_moment: 6.142
 S           0.53391852242627   -0.25388096694927   -2.74153796016725
O           1.26934616877480   -1.27953166361587   -1.99680722743859
O           0.45227585537846   -0.47040482737984   -4.14854946277425
O          -1.00578456087319   -0.41249504215694   -2.21038646472809
O           0.91850537828337    1.07953213756931   -2.30705402746856
H           0.93381617861640    1.54939182032980   -0.85104395791931
H          -1.37038034416636   -0.85682844436692   -2.96834554954538
O           0.94440966861414    1.78525276580746    0.12882250892850
H           1.23883915323101    2.69553819306144    0.17546814913419
O          -0.57954314776703   -1.59631629314194    1.70141222749025
H          -1.10658209172622   -1.03734481000625    1.09755392698303
H          -0.72763156629525   -1.19309829604240    2.56814127637997
O          -1.61468546762199    0.50030289852598    3.19269319141524
H          -1.77147933084383    0.72816971643206    2.26552646489152
H          -2.39305673423841    0.77374265491936    3.67911179977099
O          -1.52185356181357    0.57907803934859    0.33315594071021
H          -1.57652274626016    0.27382518955858   -0.58335506846181
H          -0.72362690869955    1.13692227265054    0.35375731704339
N           1.64121299616640   -0.80428440992241    0.48542451403655
H           1.57487023038659    0.22643237948130    0.56033038852076
H           1.50149343676132   -1.04321554968487   -0.57162914359373
H           2.53977147659429   -1.14697600854183    0.80558004873946
H           0.84268737507630   -1.23381176589763    1.03173112804405
