    23
        -45.37277946  Gyration_radius:  2.43329396893 Dipole_moment: 3.402
 S          -0.84309660540517    1.63862848187449   -1.05240356287630
O          -1.25686196931909    0.26321122960724   -0.75396965475242
O          -1.22957828980775    2.10907577341421   -2.34087505980409
O          -1.64352380544528    2.54719131362447    0.01097424940095
O           0.56217532953821    1.81763855713578   -0.69553918096847
H           1.55300330753126    0.52444402084099   -0.94940143132477
H          -2.30230794764505    2.92905371495839   -0.55871884301829
O           2.07112402452847   -0.31482743006035   -0.91670085430053
H           2.96096078389980   -0.09206348098398   -1.19304960603674
O          -0.37241947312560   -3.16278663992463    1.01446006482870
H          -1.19439315797542   -3.64995413370813    1.07647820606830
H          -0.24839569303456   -2.95521745010806    0.05832434222625
O           0.35075516735559    1.95262879907528    1.96626268756567
H           0.54051301137637    2.05016796063779    1.01050439742730
H          -0.46226797937871    2.44325721432775    2.10308576803252
O          -0.07247671654170   -2.13136493067979   -1.45296001900606
H           0.80620445781039   -1.73164083516258   -1.49922202823358
H          -0.68516515648372   -1.37909000609415   -1.42419903239806
N           0.29899051953154   -0.58485181353660    1.16005565365389
H          -0.40997073514824   -0.26828862292433    0.42913587442170
H           1.19495081713576   -0.64929036143781    0.65252867422795
H           0.35255427624051    0.17350016448185    1.86300535411695
H           0.02922581437655   -1.52942153543025    1.49222399077162
