    23
        -45.37985848  Gyration_radius:  2.25821763065 Dipole_moment: 2.613
 S          -0.01669480944246    0.86082958463939   -1.68334542510033
O          -1.29103957252719    1.26161216979990   -2.20381515155059
O           0.49626150588871    1.73855841853909   -0.63285847882617
O           0.04113683909597   -0.53583741726403   -1.26134211758826
O           1.03332216676812    0.96045297231392   -2.88250901366292
H           0.67361288776938    1.63921803499073   -3.44527574552433
H          -1.55508783486475   -0.33003251958682   -0.62068808037193
O          -2.35610429856249   -0.22088786627826   -0.07541437767891
H          -2.92563298236083    0.33618554925420   -0.61231334189954
O           2.44249510186973    0.11455898949576   -0.01920354260735
H           2.27212548393554   -0.51197524354187   -0.72940233653040
H           1.84981951675528    0.87104480423043   -0.23560872592773
O          -0.51467521057658   -2.44588020689970    0.57322062357074
H          -0.23349719101493   -1.98061193910402   -0.23523414952182
H          -1.45148528191905   -2.23810156521784    0.65479896518083
O          -0.84262716084997    1.27166265783889    1.61574873154931
H          -1.58537227667729    0.78963227535483    1.20212531252198
H          -0.36443887292771    1.66764391435401    0.85684701263712
N           0.87972307269610   -0.66318357090992    1.98097007194551
H           0.18356300453617    0.15426790991354    1.99026083565722
H           1.26815462659376   -0.84857104927703    2.89835398186121
H           0.36636015921599   -1.49332024441844    1.58533615207942
H           1.63008114662842   -0.39726565823865    1.27934879981618
