    23
        -45.34521741  Gyration_radius:  2.65128747088 Dipole_moment: 4.169
 S           2.38290407633940   -0.96695320892915   -0.06350426953900
O           1.87923327892410   -1.70992819001674    1.05606443438731
O           1.62706178974559   -1.00292020509437   -1.26404527105452
O           2.67984548448753    0.48131760600801    0.38166196501615
O           3.83668189391413   -1.47490422574118   -0.36756305797398
H           4.24829950571560   -1.63294614106048    0.47937275542028
H           1.81667741646126    0.90469620163615    0.72116635228766
O          -0.69843027159635   -0.86374439326902    1.42823737739748
H           0.09018947013407   -1.42444136397053    1.47746681321121
O          -2.48134535158543    1.32088399472822   -2.11860736502613
H          -1.97736242235079    1.94720392532855   -2.63967402610289
H          -2.48440057469422    1.66405712025436   -1.20430565493235
O          -2.15153576922900    1.94406112851172    0.52761834823008
H          -2.44222941487709    1.12073138520541    0.92930245539118
H          -1.19232158019542    1.97384991838394    0.65454546215196
O           0.50089330692657    1.35879441935053    1.33703461573771
H           0.66733436198380    1.64797265993922    2.23708048424121
H          -0.01937869838561    0.46837842575614    1.40930036649727
N          -1.31606135348189   -1.16684290045323   -1.09131972981057
H          -1.79600224927906   -0.38917820334054   -1.54372478988660
H          -1.04617685147910   -1.00173566968312    0.48296771106359
H          -1.76481984733324   -2.02122309378719   -1.39513392168350
H          -0.35905619014874   -1.17712917975547   -1.43394107503800
