    23
        -45.37545173  Gyration_radius:  2.39558568013 Dipole_moment: 4.172
 S          -2.07155964744593    0.31193108015351   -0.00458051999792
O          -2.21384797293681   -0.74105220418134    0.99817094771042
O          -0.96285664237856    1.19810382812623    0.28044227368879
O          -2.02671299628577   -0.24419395177188   -1.34712791375497
O          -3.38358148989470    1.19216508297946    0.07974676697480
H          -4.07280741190210    0.57441675339647   -0.14480136096809
H          -0.69457352420508   -1.07384952624428   -1.55018958004466
O           0.17367623259365   -1.56270715028413   -1.58552977377745
H           0.07854228535995   -2.22105282728013   -2.27556663416888
O           2.98164660259427    1.31501090494529    0.10508593849308
H           2.31119738293337    1.27615776113599   -0.62209949110984
H           3.32743816955005    2.20836700743770    0.09814986529315
O           1.13720179363552    0.70564059722402    1.92332839911757
H           1.91173783041109    0.94546914882170    1.36042769202046
H           0.36798898980252    1.12921075066372    1.49992595225708
O           0.96739338799365    1.17090270489879   -1.60945272078235
H           0.21246803424284    1.32946033168152   -1.01149618459671
H           0.88508944952466    0.24539083475942   -1.87205694757793
N           0.23364966056670   -1.58556457154153    1.14214739617966
H           0.45408951582134   -2.41639666125566    1.68006777607493
H           0.45118147523134   -1.71043271559481    0.13671263752931
H          -0.80417637123484   -1.34512919968352    1.19022918002882
H           0.73681525601610   -0.70184799838133    1.52846628139164
