    23
        -45.37025962  Gyration_radius:  2.41638530729 Dipole_moment: 2.385
 S          -0.26139552549447   -1.57405042582015   -1.47685091494962
O          -0.25415508557957   -2.63798671290860   -0.50468821981919
O          -1.55288048938115   -1.00040795320078   -1.76501981450556
O           0.69544555627108   -0.51330862715400   -1.08546517723020
O           0.30652849752818   -2.18951702637799   -2.82899493481113
H           0.63964245303810   -3.03941972616346   -2.55583887114753
H          -0.27865384256308    0.90724346376693   -1.22700384926608
O          -0.74926664839517    1.75885981855183   -1.10949595261415
H          -1.30198242777225    1.84545711671994   -1.88833316051218
O          -2.25934073580187    0.14965286820752    0.52961255097405
H          -2.25662627882321   -0.41386370785231   -0.27237700672119
H          -1.94672323694539    1.00666103487456    0.19118196865880
O           1.84308964334601    1.78288703799414    0.06345455616707
H           1.04894259799857    2.24139266347150   -0.23999343740152
H           1.82971051882529    0.94602376969093   -0.42053801993987
O           1.49483129470621    1.13785602600152    2.62637098499329
H           1.17094313677516    1.91324413484007    3.08672946847039
H           1.76873439961253    1.44048021546954    1.72655180692150
N           0.02015617517706   -0.75991108932064    1.46700491540822
H           0.01181866983525   -1.73043149366896    1.76895164906242
H           0.54579600822534   -0.12018530519646    2.11032678448182
H           0.46139079850642   -0.73040404869489    0.51352486061377
H          -0.97600548876815   -0.42027203321398    1.29088980305554
