    23
        -45.38152954  Gyration_radius:  2.23408242911 Dipole_moment: 5.494
 S           1.46054233491257   -0.16833864475689   -0.29133917421113
O           0.77080949642686   -1.02093757515163    0.70667886766772
O           2.50721130033166    0.60616010687983    0.32000840037644
O           2.08634722362534   -1.12488545589572   -1.33978036471887
O           0.46363540024683    0.66333945248901   -0.97163908504709
H          -1.19923258394450    0.74158134269644   -0.56655547355407
H           1.34683834472144   -1.35539357077296   -1.96184535321259
O          -2.05182702220770    0.59688496156433   -0.10102006070070
H          -2.22586764492530   -0.34806479097579   -0.21247385204836
O          -1.35255971538571   -2.11010677724809   -0.33516408221734
H          -0.53040743535112   -1.75694298130448    0.09237129081258
H          -1.41561589067738   -3.03105827831349   -0.07823474573275
O           1.10884932872614    2.68022097840673    1.05545874684975
H           1.79724070395164    2.00791077771698    0.83128538913526
H           0.74699811723034    2.94334759541418    0.20463242570853
O          -0.13883341805881   -1.33069244366230   -2.66964741644924
H          -0.16414739378227   -0.38708191182892   -2.45005329133529
H          -0.73065434360762   -1.75725313104133   -2.02383939010391
N          -0.51249716533790    0.83582148004579    2.00379363128913
H          -1.34292533949093    0.83091051764374    1.34225794950518
H           0.06497689497211    0.00409393887933    1.68873225115320
H           0.08093316270965    1.68885469967706    1.77292981856268
H          -0.76981432488489    0.79162971956341    2.98344350836931
