    23
        -45.35387408  Gyration_radius:  2.34536084525 Dipole_moment: 5.325
 S          -0.29854411239677   -1.75405508266287   -1.10605398442032
O          -1.56041853960176   -1.07083341254302   -0.98507725186341
O           0.60543203440595   -1.32659743704696   -2.10769367498935
O           0.38956055498953   -1.77075687452561    0.26196557497772
O          -0.63871771807173   -3.27274041125126   -1.36136584254616
H          -1.53366252920871   -3.41923793626236   -1.06301008125657
H          -0.31721282853003   -1.45318829420345    0.96522614416089
O          -0.41913540156526    1.53183431769566    1.75106615522697
H          -0.34059508249304    2.15954139390011    2.46996912681790
O          -1.44253680220882   -0.87564731876672    1.69610403472312
H          -2.02927602330672   -0.79551841781745    0.93085520934764
H          -1.11598198125376    0.04651193394865    1.86930628360923
O           1.41231828094709    1.35446220666571   -1.81759356715022
H           0.50487990775410    1.68591106903927   -1.68366744386123
H           1.30562590669104    0.45622278532787   -2.15524977447222
O          -1.17748215528007    1.69792458890121   -0.97446669197996
H          -1.45158369237130    0.78101894958329   -1.10912062959752
H          -1.02472643652126    1.80123394363670   -0.02368287622945
N           1.93404387512589    0.82383050946292    0.89469018135867
H           1.89284938452301    1.10750185062371   -0.09339455599433
H           0.52947473022018    1.29799650577312    1.45378849787269
H           1.97927601371783   -0.18844946905119    0.90362069745232
H           2.79641264445328    1.18303458956266    1.28378446880844
