    23
        -45.35128233  Gyration_radius:  2.44539047927 Dipole_moment: 3.524
 S           1.91504275784012    0.25740783754022   -1.25811556104881
O           2.11217012249021   -1.07848087870246   -1.71523444950619
O           0.65022187396806    0.88169579549701   -1.47672849798718
O           2.28900788639375    0.34856800893607    0.22360967275238
O           3.00979831627229    1.15924406953180   -1.95926239673646
H           3.77193360277271    0.60460493843818   -2.11268107367565
H           1.60259457865874    0.99125097797761    0.68667168723891
O          -0.69388000959986   -0.45210424246350    2.13199264357527
H          -0.24773753151665   -0.83251024049096    2.88929233509563
O          -1.89980942400446   -0.25414340113720   -1.57269464146454
H          -1.09324699338454    0.21889729527370   -1.81446536435578
H          -2.28737234192299    0.26309847809987   -0.84733178931984
O           0.46553406265103    1.74058222328715    1.18842832061183
H          -0.01971609341536    1.91327357817173    0.37177410389965
H          -0.02942421409912    1.01504423105697    1.64553526205962
O          -2.67853343931799    0.98933751347364    0.80623412865026
H          -2.11378829522951    0.46001236853273    1.38934576153277
H          -3.58357088309992    0.82834108070988    1.07625939871136
N          -0.18603016592849   -1.88559793563550    0.01338275189067
H          -0.89012488208232   -1.50547657457198   -0.62917875993905
H          -0.47604099967182   -1.04934446899386    1.33347687826384
H          -0.33084794724563   -2.88726066363666    0.05788298812975
H           0.71382001943703   -1.72643997082181   -0.42819338836334
