    23
        -45.37372389  Gyration_radius:  2.56796320126 Dipole_moment: 5.668
 S           0.90368525320722    1.84522252081419    1.05819956028499
O           1.79700639625389    1.56081846152424   -0.05874983512681
O          -0.44026105214472    2.18405048352866    0.64017666241462
O           0.94270233757538    0.78166179681641    2.05429902799173
O           1.47912202482988    3.14571455560388    1.76788249933860
H           2.36099093077685    2.89410787379640    2.02517481759044
H          -0.60398458257332    0.10259322378719    2.00082786491458
O          -1.49436469521476   -0.11436181528779    1.64533941396368
H          -1.81956865032845    0.75135041786730    1.36965296906638
O          -1.86888086340688   -3.20836183768853   -1.95043157828728
H          -2.05017631813662   -3.19257581734652   -2.89235053981075
H          -2.56632546834787   -3.71285404316778   -1.52704778792186
O          -0.27390006684829    1.27441362707243   -1.81732486495464
H          -0.52958624699308    1.75690813029886   -1.00128395310761
H           0.68444262373164    1.39212451092157   -1.82918436902945
O           1.99383196451079   -1.03334018422529    0.29549411635884
H           2.09911358504724   -0.09185312366217    0.03188791037002
H           1.84325874045862   -0.96570439489109    1.24613801252806
N          -0.50375260072676   -1.09966318328644   -0.62651028330386
H          -1.02422986192250   -0.84107662312222    0.25463646511525
H           0.49559176101826   -1.28118212203977   -0.34534739278582
H          -0.92944335871117   -1.90402163328931   -1.09673620314528
H          -0.49527188206294   -0.24397082743805   -1.24474251296177
