    23
        -45.36164479  Gyration_radius:  2.65468959177 Dipole_moment: 3.459
 S           1.14911485140358   -1.74949576274655   -1.53055854880334
O           1.93417171908691   -1.58914846388869   -0.30329341306345
O           0.19714924298543   -2.81877177571129   -1.46194070738670
O           0.53410800622000   -0.46986286749224   -1.90432870994021
O           2.19819184977575   -2.08804122257735   -2.67132890959289
H           2.86911465275966   -1.41806977838680   -2.57099600002763
H          -0.97002072605445   -0.79326373349314   -1.26196109679177
O          -1.72404129818375   -1.04659190357029   -0.67984858850425
H          -1.91869673859710   -1.94669921450824   -0.95847552439094
O          -0.32125312023789    1.69451150816824   -0.58909607930447
H          -1.21674209224548    1.34055968943248   -0.58770251590241
H           0.17770999766595    1.05803204620220   -1.13823397524967
O          -1.27783288926987    3.50528187806254    1.45244064921605
H          -1.24427789781067    4.46185302096876    1.41617354941495
H          -0.96531198372135    3.18225782892003    0.59734479780301
O           0.37491498845158    1.31028046239288    2.02186528852983
H           0.39265732438320    1.51692617191501    1.06630219269981
H          -0.26179254351172    1.94018254362065    2.38200816520377
N           0.00132685637225   -1.23034910869248    1.37324022705670
H           0.12095348940004   -0.27686878959932    1.80992444657154
H          -0.80307712286225   -1.20286834749779    0.69429737231916
H           0.87340134089729   -1.42311799910900    0.77390804927789
H          -0.11976791690087   -1.95673619244040    2.07025934087412
