    23
        -45.38006514  Gyration_radius:  2.26861275835 Dipole_moment: 5.763
 S          -1.51870481311792    0.16049745503452    0.11817513303697
O          -1.33515230771796   -1.27323865183014    0.29926689387115
O          -1.42215371512957    0.89711278990236    1.36551486983113
O          -0.55299403925602    0.67389908402623   -0.86475602716855
O          -2.94014917681692    0.41429758154342   -0.46667641887887
H          -2.95085553459114   -0.16465701501546   -1.25532075553675
H           0.68664828490783    1.67585659120820   -0.42875824462791
O           1.45506085536888    2.17316916380643   -0.05683202014814
H           1.18858637039234    3.09368187513026   -0.05150796911744
O          -2.15950833861534   -1.41276203156073   -2.21808163833522
H          -1.80948463123331   -1.71432019589076   -1.36031945764275
H          -1.40170526266781   -1.09729442563424   -2.71707472045672
O           1.18412104996013   -1.76861192803817    0.98011719180462
H           1.54347984507750   -1.60529015571658    0.08301107084388
H           0.21598451809915   -1.81240912327563    0.82967787785445
O           1.60509001286964   -0.75893892258772   -1.47834833997777
H           0.75972230560439   -0.28070136459921   -1.34837049697727
H           2.27271386922961   -0.07664905392600   -1.57570524623826
N           1.06174889755985    0.58435733232038    2.06402763335375
H           1.48335467458324    1.26105163848593    1.39121187554472
H           1.38197777224101    0.72666216339637    3.01535029828342
H           0.01241413147658    0.72838388398379    1.96537300095130
H           1.23980521179130   -0.42409671076492    1.71002547972217
