    23
        -45.38062376  Gyration_radius:  2.2547519689 Dipole_moment: 4.391
 S          -1.25632257393782   -0.84989917824530    1.13624897454679
O          -1.58616519816419   -0.96911718271176   -0.27999711393553
O          -0.39127321871073   -1.90346429839081    1.60554144366211
O          -0.77450754897609    0.48954975126851    1.45926290202567
O          -2.62110383891366   -1.00286429227050    1.93003600553898
H          -2.68193600523589   -1.94789409611053    2.01853968194865
H           0.76095608048545    0.88364092010182    1.22423590165359
O           1.68067387720710    1.15851932927071    0.96808340349372
H           2.01640827368841    1.67461131056939    1.70228475773777
O           1.93899497508773   -1.59975530833684    0.33287244087451
H           1.16296614404974   -1.86517321402755    0.86576773607142
H           2.15303438999218   -0.70358772944424    0.62364484201959
O           0.54216101136726   -1.18700125284073   -1.86548768781301
H          -0.32409294426321   -1.27560491814217   -1.41603927091452
H           1.19130045788934   -1.49997760833353   -1.18809847338888
O          -1.76495285269144    1.61355128200673   -0.71725309188426
H          -1.55753168229303    1.63108312224263    0.23257911526766
H          -1.97625459524164    0.66727311472951   -0.84165252810748
N           0.71702713264217    1.36826594365887   -1.57825921248024
H           1.08080754651390    1.93363850223055   -2.33630826380999
H          -0.29239286898619    1.61288915368140   -1.33810116693955
H           0.70499812446743    0.30026186400853   -1.82314697067710
H           1.27720529403403    1.47105477508120   -0.71475341486565
