    23
        -45.35817440  Gyration_radius:  2.34390613707 Dipole_moment: 5.210
 S          -1.35254885433863   -1.67939909410293   -0.41739296657191
O          -0.46103943419055   -2.09778208774999    0.63847046654346
O          -2.23165056786672   -2.65000563747489   -0.94976129703161
O          -2.19193870191751   -0.46718568391942    0.07313937815855
O          -0.47244712221914   -1.05450599107346   -1.53568561205089
H           0.45387572794638   -0.92031594730454   -1.12205507216728
H          -1.63455197986070    0.35292516683497    0.13903636106664
O          -0.83518251004389    1.76922152627936    0.01456899458880
H          -1.48607999611132    2.46761725227999   -0.07286318177198
O           1.31378942275505    0.91516212475009    1.54340292954050
H           0.59811722957858    1.45062678062399    1.17450654354094
H           0.87694066699643    0.34585772461076    2.20866148334390
O           1.77006421229947   -0.78466455183400   -0.38469255157218
H           1.67397025839345   -0.09167806837041    0.33524826098786
H           1.74538757309097   -1.62583465430157    0.08164272526529
O          -0.17408293698246   -0.82944069265716    2.95312790723071
H          -0.36824135994504   -1.33777292387021    2.13870454664860
H           0.05021814951827   -1.47461704067550    3.62509939168555
N           0.60683328383759    1.58284551786185   -2.19347314870769
H           1.50740762715082    1.24169184044904   -1.87718197619294
H           0.15142278806911    0.81423307595440   -2.67314765321310
H          -0.30629904815939    1.74230845222583   -0.84264585643881
H           0.76603557199596    2.33071291146347   -2.85670969287982
