    23
        -45.35808359  Gyration_radius:  2.434903067 Dipole_moment: 5.080
 S          -1.71405799687086    0.26200772193811   -1.52065143781449
O          -1.55414899599293   -0.37058041964454   -2.79658641571390
O          -1.67827082943205   -0.62138084246650   -0.36912966004468
O          -0.77345328301533    1.38698882185576   -1.34428345452002
O          -3.16612476417844    0.92154613121167   -1.50744472506612
H          -3.33169626253964    1.12558627208224   -2.42329794968284
H          -0.24106516480864    1.67221842595026   -0.10635191840716
O           2.27652747847627    0.19446972265160    0.38742845302152
H           3.05966130430405    0.56887915528876   -0.01818687200039
O           1.19494529706722   -1.28098677275241    2.49549054056289
H           1.71079340885001   -0.86427687039972    1.78759272379750
H           1.68108685862673   -1.15266763809319    3.31130183993279
O          -1.12382004910738    0.07481733810761    2.08286209022880
H          -1.51631414555827   -0.27232540021806    1.24616900741012
H          -0.43719625909246   -0.57289573589222    2.34190545464265
O           0.24108824024056    1.75428316288586    0.85927452666239
H          -0.36912330582078    1.12630082630317    1.48467130643060
H           1.09927843668542    1.24520001594060    0.73364897097768
N           0.91706690899204   -1.09757915705356   -1.40656416184866
H           1.79385328747468   -0.33778633961265   -0.34392321040272
H           0.04975283320966   -1.30243069637586   -0.91328252369682
H           0.63140256884078   -0.49359601174124   -2.17095192006573
H           1.24981442364266   -1.96579168990426   -1.80969066440210
