    23
        -45.34743862  Gyration_radius:  2.47659298468 Dipole_moment: 6.813
 S           1.02892676444676    1.57082011834581   -1.90234187172463
O           1.73504762270944    1.46778915657313   -0.66056422974388
O           1.77043600695429    1.64368931802929   -3.10004944594303
O           0.01986680280457    0.37508800531262   -1.97680700824120
O           0.05514519128967    2.80495854512364   -1.81260733368226
H          -0.46259341932966    2.69060807592341   -1.00723205129007
H          -0.54184270752741    0.53978122497548   -1.16832556858000
O          -0.21987383994283    0.11675022788643    2.21649766435883
H           0.14705958312524    0.70880633412230    2.87351476088208
O          -1.28412786447935    1.23046702620932    0.07320895704117
H          -0.81516453395302    0.91274345328871    0.89163235678400
H          -2.13159133619891    0.77181086211422    0.09405880890815
O          -0.15423533268908   -2.28121315589809   -0.86687467147554
H          -0.93751021508230   -2.00797001717980   -0.36324496339926
H          -0.07026206528371   -1.65305277677697   -1.59095971904589
O          -2.16519510262985   -1.36098573189224    0.90517818635866
H          -1.54200210753638   -0.98457180442364    1.54799353032820
H          -2.54282996892565   -2.14196222230659    1.31241236590763
N           1.71591720485096   -0.94503679085740    0.89466686129252
H           1.97182390127302   -0.13686571420238    0.32952304698842
H           2.56007815454922   -1.35185319722769    1.27413472461720
H           0.58402300091491   -0.34290407286834    1.76245722950199
H           1.27890425067798   -1.62689688430355    0.27372838015605
