    23
        -45.37659849  Gyration_radius:  2.32035586723 Dipole_moment: 4.387
 S          -0.91550783617957   -1.44295682182854    0.82430802983742
O          -1.83704383213070   -1.20156099525971    1.90158155870597
O          -1.48568119183978   -1.24336025231589   -0.50074858994410
O           0.36958266015333   -0.77170795019943    0.95509453516313
O          -0.54536678552723   -3.00036314700935    0.89934654128968
H          -1.34108606672920   -3.39430504524279    1.24358406451870
H           1.47691068038369   -1.05540220277179   -0.21864671781155
O           2.03766539816338   -1.13056165061082   -1.02867688042811
H           2.16578588285402   -2.06976027940920   -1.16785604554999
O          -0.09221314815723    2.45051379970277   -0.56738604476969
H          -0.83429748475193    2.19822816612114    0.01783504873299
H           0.70247999759610    2.31559240845477   -0.00657879374170
O           1.86109985652333    1.47815827134817    0.98980033770776
H           2.62946012003784    1.12657871788764    0.53483722918463
H           1.29589048502715    0.70674298691610    1.17442948757158
O          -1.78125350409203    1.38342848241409    1.26093629610264
H          -1.57529992050556    1.77523097520640    2.11316753324686
H          -1.89073104039115    0.42979564669305    1.43172045637226
N          -0.04282288428604    0.29417169663813   -2.00918639883993
H          -0.04770868892135    1.25363273647152   -1.50502168639949
H          -0.71745781926805   -0.32383548078816   -1.46095061353592
H          -0.32044769739343    0.37397017913128   -2.98051750018917
H           0.88804281943155   -0.15223023154557   -1.90107183720968
