    23
        -45.37879717  Gyration_radius:  2.32673750222 Dipole_moment: 4.330
 S           0.80743011786201   -0.90279952700923   -1.49900147856891
O          -0.11352602638070    0.11165496180832   -2.00132287210411
O           1.62643534907201   -0.41596698858242   -0.40926587724815
O           0.11104097553179   -2.13858437600891   -1.18590477896863
O           1.80032956042557   -1.22431768962142   -2.68748687725133
H           1.20443066024552   -1.51536069475990   -3.36970536228426
H          -0.95998132329761   -1.99988960782116   -0.02210419771388
O          -1.62595130830953   -1.82402070125417    0.69728639792290
H          -2.11455213268789   -2.64069354347982    0.80967957152150
O           1.76962016349348    2.20867443390631   -0.02966321503379
H           1.73342839332500    1.26033769940714   -0.27768520091184
H           2.66505243835644    2.36522965061953    0.27499546261329
O           0.53356239789237   -0.60048185596560    2.07027981297901
H          -0.23281745020961   -1.15444618519957    1.87159644688809
H           1.07839933057523   -0.62122564905456    1.26295251606298
O          -0.25471859268762    1.91477811974869    1.69538676345311
H           0.48735377273837    2.22793420785757    1.13316475454855
H           0.06897474612387    1.06471018935851    2.07609905696548
N          -1.74546439598197    0.78678234948064   -0.08636868592703
H          -1.18535790824974    1.34742680004633    0.66829244553775
H          -1.10151893681664    0.61486564204571   -0.91515832916657
H          -1.97022168310409   -0.14572971331255    0.29964837015920
H          -2.58194815793633    1.28112247779146   -0.37571474348116
