    23
        -45.35930538  Gyration_radius:  2.41066150679 Dipole_moment: 8.363
 S           0.21211643219014    1.21298206348442   -2.10044624346781
O           0.76266593242975   -0.15502334577575   -2.04001826545812
O           0.13845758734786    1.77126688117239   -3.40490938287104
O          -1.29384082882819    1.00961933680734   -1.54602987444855
O           0.84453209524365    2.06419599723494   -1.09381576854370
H           0.93229522863448    1.76570123275978    0.37466003723327
H          -1.37108606599593    0.05416892983343   -1.47587623232263
O          -1.67539472492028    1.00970591411221    1.21872286945650
H          -1.78242327168000    1.47363254363660    0.37702337440269
O          -1.89209897563533   -1.31770143286771   -0.01648154471504
H          -2.81876704844282   -1.53825919910264   -0.11802903449914
H          -1.85654092568319   -0.49204483101241    0.53285515482926
O           1.02551114143859    1.48495041792359    1.34854330078825
H          -0.74809731136732    1.16740998593237    1.47154930388988
H           1.44546406465408    2.22584602551110    1.78743077168693
O           0.08915894822751   -2.68349273221000    1.16271927922925
H          -0.66984005582658   -2.33599517537934    0.64711893892856
H          -0.16444674004411   -2.62807974848341    2.08593489920004
N           1.78827685613762   -0.82959219734590    0.17748985926118
H           1.36446850644204   -0.55333664044227   -0.80822718596561
H           2.76511018566588   -1.07798821449938    0.07121238416473
H           1.66981912661633    0.00118889221695    0.78809890059017
H           1.23465985338236   -1.62915469350729    0.56047444863244
