    23
        -45.37892508  Gyration_radius:  2.30189047981 Dipole_moment: 5.985
 S          -0.27416256702335   -0.80339395944989    1.11872706022588
O           0.19602466302138    0.55268516181505    1.44056296824964
O           0.81829178190368   -1.61832291198986    0.62124528676046
O          -0.81418425377763   -1.43026387121234    2.44767091461117
O          -1.40736210210749   -0.76437299991544    0.20485139509082
H          -1.95160109599855    0.96202424525261   -0.01414360327985
H          -0.01806598713239   -1.48194339128453    3.01062491101316
O          -1.58060627511578    1.86348532695507   -0.04165161967612
H          -0.91199302138665    1.80386266550167    0.66489507305932
O           1.90651599093325    0.56406434269168   -0.54826611616127
H           1.41133339954775    0.76711627366997    0.27575897733196
H           1.91346350349677   -0.40476967190398   -0.53819060744197
O           1.74636256162830   -1.16435595579552    3.09120760643010
H           1.71557407349121   -0.20795618154448    2.98727656406406
H           1.76071145008233   -1.52062999373662    2.18620879737849
O          -1.10527551515335   -1.09561181045166   -2.37870728202659
H          -1.17186663974784   -1.12481238211019   -1.39420817480546
H          -1.93491061349907   -1.44581848787545   -2.70714614498586
N          -0.05648311940864    1.33327424581482   -2.12013083481698
H          -0.47674876378670    0.43355025620156   -2.45536945450509
H          -0.71064388793046    1.71263243086422   -1.36443161488081
H           0.84654962851204    1.07600150323939   -1.61350583284361
H           0.09907676945991    1.99355515527381   -2.87327827878411
