    23
        -45.37859025  Gyration_radius:  2.33447978504 Dipole_moment: 3.204
 S           1.74869528984020    0.83158135190588    0.17555245560065
O           0.99118696901697    1.21078546527393    1.35874033206929
O           2.22518100279295   -0.53303364495876    0.19567497744561
O           1.01089033364357    1.14428486986812   -1.05029094203773
O           3.04108870741337    1.75089271120213    0.16303762210382
H           2.70823970547762    2.63160282474841    0.30880334403998
H           0.39537313341938   -0.33128150814100    2.09665778639849
O           0.42198551484521   -1.29523580122609    1.95558279572280
H           1.25624162431934   -1.38097281934752    1.45791505837463
O          -1.14668149325258    2.17660115708413    0.05118633201793
H          -0.69515090311605    2.06296721746441    0.89950659234711
H          -0.44891765619370    1.91305501638044   -0.58188243079264
O          -2.90316651046478    0.26598933676118   -0.29776898273980
H          -2.30779701867196    1.04132091432436   -0.10294547122951
H          -3.31190947895916    0.46066733223613   -1.14252138786899
O           0.68490828962787   -1.31041261299177   -1.88110490565531
H           0.73116981869130   -0.33109561873545   -1.80187051173466
H           1.48796088601606   -1.58124084991424   -1.41628603651411
N          -1.19516934800852   -1.76326462589545   -0.07914497038827
H          -0.63955384924027   -1.61893415260309    0.81999300778250
H          -1.62610789698308   -2.68139300280115   -0.08859654179649
H          -1.92786772444200   -1.00736391582195   -0.15950153431733
H          -0.50059939578181   -1.65551963480791   -0.88073659881437
