    23
        -45.37126176  Gyration_radius:  2.37058645422 Dipole_moment: 7.038
 S           0.63555048894473    1.06014991052413   -1.25537932295829
O           1.43019641271014    0.86133082100312   -0.03358003479959
O           0.27966046342603    2.42489687007555   -1.48874048072107
O           1.52041066169709    0.55754082481929   -2.44209031679528
O          -0.53808761512634    0.15781269824984   -1.21726261117793
H          -0.54620966530856   -1.25342709972418   -0.64103298329109
H           1.74808145267926   -0.36198483489058   -2.19437555774253
O          -0.49003054589914   -2.16661038732189   -0.21455206645882
H          -1.32334991457807   -2.59697791549371   -0.41236158640530
O           1.80639876724553   -2.02991863599673   -1.77354242050208
H           1.63933727060803   -2.51611380472389   -2.58391100355455
H           1.06612996656263   -2.22077709530485   -1.17102256792504
O          -1.44258708348726    1.23263884749310    2.56208230142699
H          -1.12295237293093    2.01552632730611    3.01369172702459
H          -1.71542394616947    1.54132208337301    1.65666981066508
O          -1.89415752690564    2.01434800981698    0.09125309823880
H          -1.67155892060889    1.22075055747821   -0.42861929010900
H          -1.29124476532248    2.66889571177491   -0.28899479022806
N           0.38133628284774   -0.54541391960607    1.79742523037560
H          -0.03233829314550   -1.34298071802580    1.28682768230984
H           0.88693913166206    0.06007804927561    1.03015697577560
H          -0.36645945687635    0.07625896625477    2.20595866052438
H           1.04035920785079   -0.85734525636720    2.50139954623907
