    23
        -45.35545898  Gyration_radius:  2.42367702183 Dipole_moment: 5.691
 S           2.23341262706471   -0.02978596144885   -1.10621929045585
O           2.17243543822347    1.29518237621933   -0.54666518948927
O           3.50073795525932   -0.55209442943661   -1.45110168456426
O           1.51022012514366   -0.98989421592917   -0.09575216020924
O           1.30305477272047   -0.10672468415916   -2.34407031094188
H           0.39099077404469    0.20386437316969   -2.08017601920037
H           1.19252927531148   -0.46131896767046    0.69073109365304
O          -1.10765779099437    0.51387502426837   -1.61632947014487
H          -1.68500274366471    0.52037181005882   -2.38152941505802
O          -0.15452749668428    2.30017390698409    0.26362236480491
H           0.74265710392311    2.26162154137667   -0.11800603210100
H          -0.71320117810688    1.84066089967810   -0.38187152999662
O          -1.77438289860745   -0.76900773933799    2.37919338556054
H          -0.86441676877184   -0.43512840522981    2.38388271576910
H          -2.33475441940664   -0.02742756744903    2.61395726358323
O           0.67841302173655    0.46603769573944    1.89797933656961
H           0.28071135404250    1.21705445234803    1.36138260327519
H           1.47185995194117    0.82462945161218    2.30075830711463
N          -1.40904476932844   -1.70856564568409   -0.32807864282891
H          -1.69318572918245   -1.50269148419140    0.63061013688046
H          -1.99385219286082   -2.45678393728427   -0.67716631361552
H          -1.29503833204963   -0.36090586387665   -1.10612785878737
H          -0.45195808966451   -2.04314261921899   -0.28902328979053
