    23
        -45.36970949  Gyration_radius:  2.47096415917 Dipole_moment: 4.078
 S          -1.53060929207959    1.57748816775482    0.18225448706340
O          -2.22285283944704    0.49141865664551   -0.51270424855228
O          -0.75924632934847    1.10287897085391    1.30774153404425
O          -0.74958523467766    2.38306989218240   -0.74502653784294
O          -2.66189040228510    2.52309300067784    0.76363046196392
H          -3.13613108920576    2.79075697338346   -0.01785700854180
H           0.43952442396384    1.60969894065202   -1.45707603926640
O           1.15464983532482    1.03570643500933   -1.84914062299677
H           1.38180236415579    1.43532558555360   -2.68976292595219
O           0.45771127444968   -3.58359036586033    0.19154705663855
H           0.57342558490137   -4.47748213897185    0.51520215263304
H           0.66923368334513   -2.99361852628828    0.92792586352219
O           1.94455437203824    1.08975605956142    0.89577327130151
H           1.04385367812210    1.39226304573373    1.10654330809716
H           2.01041955358453    1.14448471046250   -0.06559455173998
O           0.76998440945189   -1.14993903132201    1.72159093606208
H           1.48307047407484   -0.49125852847461    1.56469619650315
H           0.04547056053972   -0.60333191700947    2.05888641356939
N          -0.18361513415265   -1.07295144418545   -0.80351218897777
H           0.21016567255373   -1.12311689554645    0.17445983767406
H           0.44365092294707   -0.49058628280990   -1.38717509077275
H          -0.26695028052786   -2.02993681347409   -1.14411315833180
H          -1.11663620775109   -0.56012850450969   -0.73828915609597
