    23
        -45.35770750  Gyration_radius:  2.35372040617 Dipole_moment: 6.305
 S           0.75093757200366    1.18682258918847   -0.88890467946064
O          -0.41877991837220    1.45118064672475   -0.09503996496462
O           1.96357179341380    1.79332231714590   -0.44454680394834
O           0.95599659752914   -0.37503295923947   -0.93810877962924
O           0.47724044105480    1.49278223739036   -2.35562522359417
H          -0.53263972213464    1.28897085803984   -2.48804818147576
H           1.02377798895469   -0.72657426322464   -0.00494281710492
O           1.13539982650474   -1.17288437319471    1.53222247761835
H           2.00699025034682   -1.54450664809746    1.68330295217140
O          -1.95906110601078    0.90650868465805   -2.25960478714893
H          -1.92947597766708   -0.08343905212686   -2.22173970932373
H          -1.96008015759895    1.19750993649954   -1.33606957753429
O          -1.41233232980273   -1.64321447307483   -1.80848937961073
H          -1.63216920346696   -1.80257991209551   -0.87265432804977
H          -0.46123983526828   -1.48259466140110   -1.81641273110644
O          -1.49531044598644   -2.02190424097122    0.91703118278382
H          -1.63852121603499   -2.87916188702300    1.32150231555835
H          -0.63371040802045   -1.70420699735474    1.22239646922482
N           1.17875859545491    1.31449526531246    2.25970323833623
H           1.45466874527547    1.76446550785905    3.12401438601231
H           0.23067298908583    1.59786973432432    2.03456624843484
H           1.75186618274028    1.67847181945701    1.50065315437383
H           1.14343932800712   -0.23630012878577    1.93479454844041
