    23
        -45.37197261  Gyration_radius:  2.39354461583 Dipole_moment: 5.131
 S          -1.54890602392720    0.89675545249014    0.15955705962307
O          -0.07953839421954    0.96027625358705    0.30199893236233
O          -1.91049143858657    0.44184499575296   -1.17351765168232
O          -2.10920533996607    0.09276290938866    1.22467916465070
O          -2.07860356404284    2.36488873306872    0.28675417037536
H          -1.85942616101944    2.61404523493158    1.20522120784513
H          -0.74693125372020   -1.85471345563078    1.10057875153779
O           0.04291358714181   -1.64638962511737    0.59334179185677
H           0.04138694421395   -0.66063507136045    0.56385551317162
O           1.86446384056782    0.50361234869725   -1.49967814640681
H           2.41986951933305   -0.09689768240842   -0.96475562407189
H           1.25491401823046    0.92263360048720   -0.85954757175367
O           2.78041446953139   -1.42161398456594    0.20618607232605
H           1.88168565497274   -1.68635377379586    0.45921335990235
H           3.23423120702477   -1.18303132487112    1.01594061960464
O          -1.07198974972440    2.04283103979027    2.73098383291793
H          -0.19858696918570    1.91237935916099    2.34788197870607
H          -1.55179370209835    1.21515444845659    2.55226535656473
N          -0.07195984659426   -1.11553994037273   -2.08836613925719
H          -0.89930115789671   -0.47162102248345   -1.85096664593497
H          -0.19085200676835   -1.59387669480001   -2.97403174022800
H           0.79775671750975   -0.47522999872638   -2.04978739674606
H          -0.00005032077426   -1.76128178168131   -1.28780688535360
