    23
        -45.38129205  Gyration_radius:  2.28550956296 Dipole_moment: 2.214
 S          -0.61877272221884    1.68337159367537   -0.25834092354536
O           0.83991677317173    1.61526166046013   -0.28312698578941
O          -1.21433947786469    0.71449601460535   -1.16094948331908
O          -1.13553321017548    1.62788497918697    1.09220307810841
O          -1.01578457212663    3.10493820138272   -0.83291942396527
H          -0.84250658988718    3.68926121479557   -0.10149023933656
H           0.46957406529270    0.38867643802755    2.47217099650008
O          -0.17974963672271   -2.18959052016388    0.97300082808389
H          -1.08680594321241   -1.82146814413607    1.07853346764570
O           2.63999427143439   -0.13792551488540   -1.14840748898662
H           3.07225109032629   -0.36871390287292   -0.32207023308145
H           2.10606734749769    0.65779008361673   -0.94536598148202
O          -2.40460097615435   -0.70725655697602    0.96153413833749
H          -2.70654447118333   -0.62047054415580    0.05365524007787
H          -2.01104609366899    0.16500227932565    1.16403292203838
O           1.09297991489121    0.02363934697366    1.83875006949488
H           1.06159676317728    0.64719028987915    1.08665815722703
H           0.39665729539756   -1.53552930026640    1.42245510655704
N           0.31012260954038   -1.40919342822864   -1.44758252612379
H           0.12433020330290   -1.88094036645361   -0.48925514154427
H           0.12432237990460   -2.02912924479270   -2.22765517132879
H          -0.32102268864639   -0.56322225059895   -1.46913031540026
H           1.29889367817534   -1.05407231831503   -1.45670008012925
