    23
        -45.37859075  Gyration_radius:  2.33477354448 Dipole_moment: 3.189
 S           0.52835674666778    1.87037197532786   -0.07233829326249
O          -0.17594344450462    1.69284848307992    1.18847220290885
O           1.86944581287314    1.33045817558834   -0.07814950552246
O          -0.26903646487578    1.38400672055383   -1.20021899447725
O           0.68108103592868    3.43590090560355   -0.27641996870120
H          -0.18323288484186    3.78682970536562   -0.08312675839520
H           0.61168431621512    0.12333196117861   -1.87018500098115
O           1.31192392648127   -0.56575512417192   -1.92152578283345
H           2.07565234739983   -0.09533284062288   -1.56178456998347
O          -2.11941005103237   -2.02327182127147    0.06928502876415
H          -2.58728574941251   -2.29434955659997   -0.72206656946712
H          -2.30115762623741   -1.04809037717791    0.16711024336645
O           1.37916402783749   -0.31393399204255    1.91516589861913
H           0.64359720084261    0.31181063207899    2.04304810686093
H           1.94869016784781    0.19936087949508    1.31173872812245
O          -2.38636159251039    0.58072599385746    0.14270392408548
H          -1.95063349807435    0.94012454323878    0.92840660329334
H          -1.77244307012473    0.85563505865234   -0.56776838477807
N           0.54128113749329   -2.05905659136701    0.11874959577910
H           0.86217397908490   -1.56161159572731   -0.76795694001869
H          -0.51285450974182   -2.11757062717405    0.11364870344656
H           0.95065684990646   -2.98443822309913    0.18828265108914
H           0.85465136278168   -1.44799429475874    0.93492909208780
