    23
        -45.37876664  Gyration_radius:  2.27429047852 Dipole_moment: 6.353
 S          -1.57245839978423   -0.90359013459026   -0.37610285397806
O          -1.32133033550683   -0.78923791871455   -1.80912452069868
O          -0.63340198009632   -1.75122137736903    0.31081841395242
O          -1.68953940698722    0.42406242635002    0.22958971042894
O          -2.99430355109569   -1.58023359087248   -0.23294072341098
H          -3.53377611267903   -1.08022848324049   -0.83739027307143
H          -0.56160196353193    1.54299886120168   -0.09045276635788
O           0.17731974774406    2.16694865819221   -0.30769885433267
H          -0.18743738618923    3.04916337158441   -0.22472505772787
O           1.71674835053142    0.80529672218179    1.66286700653902
H           0.96279319606142    0.48210073202395    2.20094780301719
H           1.33519148072951    1.46597468907222    1.06881296942880
O           1.98615374517552   -1.23893283705141    0.02218536439917
H           2.06704565309077   -0.53601128934250    0.71948576335951
H           1.12203176563628   -1.65950098059645    0.19787323113466
O          -0.60468573154635   -0.20420651417454    2.61397053036950
H          -1.12246919641008    0.13124262830930    1.86137334885135
H          -0.50596039284729   -1.14290555780180    2.42621533646087
N           1.09091464344642    0.17792903419311   -1.92105873511215
H           1.60308235246912   -0.44185480776059   -1.17063564777268
H           0.95941481833708    1.11835610469436   -1.51683663803953
H           1.58471812411468    0.21018869752845   -2.80580188129542
H           0.12155058933817   -0.24633840382392   -2.02137151614573
