    23
        -45.37126188  Gyration_radius:  2.37046597054 Dipole_moment: 7.030
 S           0.96827404565161    0.23431575473898   -1.45137927325132
O           1.65763300281661   -0.06869344550239   -0.18769220046176
O           1.35901316962260    1.48207780896460   -2.02945546035004
O           1.33597342814959   -0.91939184474233   -2.44006395263946
O          -0.49350711945194    0.13179411058178   -1.23771814921416
H          -1.18161219478510   -0.88007504752007   -0.32843308681902
H           1.07065495506225   -1.73257104110054   -1.96354176823823
O          -1.56983424117249   -1.55503788841042    0.31388287287698
H          -2.51988099465402   -1.50945363312952    0.19515255287379
O          -0.54009819837439    2.66919555622635   -0.49044276048405
H           0.27543179391992    2.79188883856274   -0.99688922654394
H          -0.82024611926164    1.78390515281027   -0.78586621664832
O           0.28485992614019   -3.02517454085955   -1.14280953028699
H          -0.37831541145969   -2.64837671265144   -0.53826634762995
H          -0.19579914352641   -3.51316972973896   -1.81487895226066
O          -0.31553282983448    2.36610977127595    2.11283107697212
H          -0.47743023775184    2.55238147570584    1.14918650728636
H           0.41339127948484    2.93569537910542    2.36447936049028
N           0.21576919888761   -0.23022787233118    1.89228495566728
H           0.88436689404459   -0.18486631963012    1.01946322799245
H          -0.60300724136329   -0.77822035891250    1.58053865424807
H           0.67957478009436   -0.67107294512003    2.67820233791452
H          -0.04967875224761    0.76896752166503    2.10141537849714
