    23
        -45.37390258  Gyration_radius:  2.336053966 Dipole_moment: 3.526
 S          -0.52145439191566    0.26619582789165    1.85987101524950
O           0.93034198903627    0.17265121775155    1.79832568946177
O          -1.12581637736238   -0.44343030209145    2.94473783349365
O          -0.83911208872548    1.82832267502489    2.08972064665394
O          -1.12161114301857    0.01730014940885    0.54567814362246
H          -0.58806781580780    1.25747959334308   -0.37313963006689
H          -0.85782320172575    1.92585588075878    3.03717912303902
O          -0.19442620410076    1.91190625659357   -0.99908998200406
H          -0.39242272312517    2.77178200703760   -0.62522199764042
O           2.14597047446697    0.44376081721794   -0.53200150810697
H           1.63052257934828    1.18938088266205   -0.87513631769834
H           1.89050089820115    0.38782002245815    0.41516058566528
O          -0.81592083927167    0.16858431161394   -3.06390745164318
H          -1.77432431470279    0.17598400578137   -3.08987735465070
H          -0.55648913637710    0.91931744783475   -2.50005152904622
O           0.20314781632281   -2.40285660356433    1.40809211443329
H           0.77244912693634   -1.65833756839915    1.64604431681294
H          -0.51298804212513   -2.35857690760756    2.04802970921948
N           0.34980607889390   -1.35324534975848   -1.17136646005900
H           1.23546219331968   -0.77798964156999   -1.00964857385233
H           0.50777498368706   -2.34787163215167   -1.04287477061245
H          -0.30923781141071   -1.01174086535001   -0.42282432763839
H          -0.05628206056804   -1.08229221486759   -2.08769926463624
