    23
        -45.36925743  Gyration_radius:  2.30592052411 Dipole_moment: 8.241
 S           0.94245465160502   -0.40614524758306    0.37964705874294
O           0.64256554098816    0.86660601958953   -0.30313352797267
O           1.71952960357363   -1.30264739873310   -0.42393847515287
O           1.74346808574327   -0.05046631233309    1.67315406502649
O          -0.32325494552946   -1.01457931123204    0.81441687971050
H          -1.69807087607093   -0.18698207043537    0.89950995986853
H           1.18563045955558    0.60832328380675    2.13138655603718
O          -2.53172587756743    0.34029228420077    0.78484617992913
H          -3.23584838731415   -0.20099849325156    1.14586275583273
O          -0.71628272425505   -2.11944185441639   -1.57154718453016
H           0.20801118909596   -2.23904977965189   -1.81757052958081
H          -0.67152714832272   -1.98665367682875   -0.60356612284990
O           3.92583255872745    0.36223737156335   -0.30155240100697
H           3.88095073585176    0.48906290824183    0.64820344806547
H           3.24442336482316   -0.29250594910825   -0.50327514301479
O          -0.14801623142425    1.80174149169734    2.06311738180781
H           0.10344769485468    1.82528917211613    1.12461793034792
H          -1.07493389377054    1.54254887871151    2.07648584597428
N          -1.46819789026077    0.40952593402692   -1.68330484173288
H          -2.16849810550304    0.49273698108638   -0.91610743161870
H          -1.71606923469852    0.94256968482046   -2.50953004071722
H          -0.54435527800409    0.73599558455296   -1.23234414353599
H          -1.29953330212632   -0.61745950084772   -1.87537819965298
