    23
        -45.37126176  Gyration_radius:  2.37050234378 Dipole_moment: 7.028
 S           0.44038930338889   -1.54058265199147   -0.73172897852856
O           1.42108138571153   -0.86673045574928    0.13322148626225
O           0.90811901225493   -1.75471359230124   -2.06551101554136
O           0.14829218761115   -2.92574247513091   -0.06863857632055
O          -0.83704359588103   -0.79287648941147   -0.68328900548440
H          -1.40397375062055   -0.09483811094991    0.54748743628141
H          -0.13345758238925   -2.69799227159390    0.84100856779770
O          -1.70563227914776    0.37187265558511    1.39018644739565
H          -2.59464965656559    0.68209605387972    1.21082763710123
O           0.01192748218433    0.74099740837228   -2.66427613860077
H           0.60845461768078    0.02158517225167   -2.91558790425654
H          -0.56286596679131    0.29791659269450   -2.01397654003013
O          -0.88893839943589   -2.13156586657288    2.28011867068490
H          -1.19071800892718   -1.21826629493704    2.13104714085745
H          -1.67499515156620   -2.66953833242799    2.39694660060501
O           1.02812866478060    2.73337990606615   -1.27941282671788
H           1.91699380677545    2.84216601077340   -1.62180767438848
H           0.59915125996890    2.05432438670003   -1.86617962042842
N           0.78339121179496    1.42163276092680    1.02102492656005
H           1.36094404806394    1.73674452819960    1.79192270569714
H           1.10280875058131    0.42718758712536    0.67464066137646
H          -0.20234936770662    1.30651942756560    1.30934268427130
H           0.86494203812655    2.05642404080280    0.18263333543697
