    23
        -45.35138238  Gyration_radius:  2.45908011736 Dipole_moment: 9.453
 S           1.44156969880243   -1.11036592884521   -1.70000427542666
O           1.20201758246293    0.07432801310812   -0.91763696288145
O           2.76934140371166   -1.36281281719845   -2.12023546105252
O           0.95470493042409   -2.32704796495210   -0.82996594381653
O           0.48603753083336   -1.11776875177383   -2.90967676840526
H          -0.40268964807829   -0.78294811722190   -2.56845066959458
H           0.20040503546395   -2.02205992883217   -0.27927176974293
O          -0.66002620370122    0.74502675833536    2.02692707095338
H          -0.82673717903243    0.91021532267220    2.95597270517338
O          -1.68371463699847   -0.35628450031069   -1.78033024002686
H          -1.57573873528685    0.55861113559730   -1.44620463351387
H          -1.69899245050808   -0.90911146863960   -0.98764273970239
O          -1.09514333237619   -1.54392600641418    0.69500743525757
H          -0.90004914723603   -0.70259926108089    1.16951904330586
H          -1.24957585166841   -2.21506160781261    1.36238202238564
O          -1.68205598800616    1.92691566960180   -0.30791968591875
H          -1.25983909331249    1.57766107193804    0.49360724329715
H          -2.57380090249898    2.18461691090375   -0.06756208645286
N           1.82855253999620    1.33964625286792    1.48932647526832
H           2.61712981020398    0.88923140918194    1.93685166925931
H           0.31090826023497    0.98183877842239    1.85893876613048
H           2.05428949358381    2.32014851566498    1.37665498783525
H           1.74340689299697    0.94174653478646    0.54971381766701
