    23
        -45.33140953  Gyration_radius:  2.26215763613 Dipole_moment: 4.108
 S           1.24526748367956   -0.20715152048358   -1.13563119359336
O           0.97550977436243   -1.16214476727995   -2.17655993339525
O           0.87918147109912    1.19622484699321   -1.13168639153966
O           1.53269244328156   -0.83105284336784    0.29673841800837
O           2.84718352524181    0.05681395547457   -1.41092043710010
H           3.24500710988832   -0.70805014626328   -1.82483119422445
H           1.11109718630060   -1.73320216959107    0.32792237391774
O          -0.70303791991570   -0.53249901082734   -0.57200269378791
H          -1.07391955958209   -0.67478398214801   -1.44218119381064
O           0.07175821710341   -2.96819982706990   -0.06484862793091
H          -0.47052135994467   -2.16147696775004   -0.25334531591494
H           0.39605935009626   -3.24144510176308   -0.92743008719573
O          -0.39103294284326   -0.01052109382975    2.13404106240393
H           0.46857487759291   -0.39507037901355    2.32386280898413
H          -0.59460368993194   -0.32615976056779    1.23410735472099
O          -2.60467722417256    1.17814314392563    0.05264793206669
H          -1.92171744841938    0.51326498445219   -0.25088442966834
H          -3.10568438719007    0.73914601773080    0.74266819698269
N          -0.37306526637356    2.30318008811722    0.83894994996479
H          -1.37309215773026    2.18429285743558    0.53129384927322
H          -0.12247558459313    3.25144731947806    1.09113481301065
H          -0.24345151922947    1.59933552474353    1.60293028944093
H           0.20494762127314    1.92990885160562    0.01402443939019
