    23
        -45.35625919  Gyration_radius:  2.33332292588 Dipole_moment: 5.625
 S           0.88224518441891    1.84916210701663   -0.93395337042501
O          -0.50822084531269    2.23085723189099   -0.84383965681764
O           1.78803295495041    2.72731305034812   -1.56937969646662
O           1.37776458014592    1.50025415399471    0.50059334775818
O           0.93566617375008    0.45721689528975   -1.63374867155415
H           0.01530346968786    0.07023996762503   -1.51263247393254
H           0.60877306891326    1.66566978446185    1.14363491744254
O          -1.43405547632837   -0.73021788886730    1.39887970657581
H          -1.92866862898602   -1.38214004326723    1.89671719023020
O           0.59086844403105   -2.41084346789932   -1.64391259234288
H           1.13459385005376   -1.75715086669484   -2.09318942236380
H          -0.32191669397928   -2.14686408225780   -1.79405938748198
O          -0.77864488312965    1.87210236568275    1.79538284808778
H          -1.14696770228648    0.96665899747029    1.80708200273367
H          -1.10419088429415    2.28790735753558    0.98254373534789
O          -1.50429131244719   -0.25467492327490   -1.24177886327095
H          -1.59244418821051   -0.49868640652224   -0.29336222932294
H          -1.70045687605396    0.69204013404180   -1.28356097061086
N           1.03705408423246   -1.46949230940772    1.08010568056458
H           1.02205120515559   -1.98076353522990    0.19679235876764
H           1.55163178954961   -0.60802726821260    0.92764974913837
H          -0.46754632706205   -1.05726916432756    1.35554533923802
H           1.54341901277131   -2.02329207864185    1.75849045849227
