    23
        -45.37390223  Gyration_radius:  2.33624919658 Dipole_moment: 3.536
 S           1.32331677687062   -1.02423513559830   -1.00078277830583
O           0.50158181273205   -1.95413074092231   -0.23918152008387
O           2.72409783888379   -1.31331603222026   -0.99562000352394
O           0.82430653054130   -1.16361283095360   -2.52584264110012
O           0.97664304781503    0.36507774373678   -0.68585533421697
H          -0.55990503714548    0.51813998931306   -1.21862611580380
H           1.38457996461623   -1.84051562572559   -2.89388529383484
O          -1.52323409183599    0.62441477865566   -1.40735244813498
H          -1.62944187561206    0.38274301926762   -2.32860252305433
O          -1.79901169074486   -1.12644446821980    0.76297515889855
H          -1.02987860312951   -1.63200089802997    0.41911703766398
H          -2.11147904892200   -0.61758134489029   -0.00043294216233
O           2.03502805827029   -0.86754024449682    1.70571592917897
H           2.82274752944036   -0.84902650995826    1.15476445655088
H           1.46409061022242   -1.51601485070869    1.27149192792836
O          -1.54315765654845    2.75024057119341    0.37370634999953
H          -1.73386147468960    2.07552617462609   -0.30243858761435
H          -1.01699685805451    3.42183251297105   -0.06379008676433
N          -0.21928013717408    0.77273828429253    1.63645569875504
H          -0.70364021444577    1.67920425056768    1.48971645677642
H          -0.92985309961356   -0.01514807776536    1.51177353815874
H           0.44624561476795    0.63817957715272    0.82987365861411
H           0.29710202371896    0.69146986777332    2.50682006205360
