    23
        -45.35420070  Gyration_radius:  2.45182132359 Dipole_moment: 6.936
 S          -1.96677525154214   -1.80266540689867    0.32485485976599
O          -1.03524757617501   -1.34029436674659    1.32921545217078
O          -3.20759460334509   -2.30875002413336    0.77064566583400
O          -2.17614389448207   -0.64938057907108   -0.69212728844638
O          -1.26975553508347   -2.88716559140028   -0.55214068764659
H          -0.37501066523695   -2.57281118623143   -0.75993526891214
H          -1.79929922486967    0.23495394903528   -0.38563582595495
O          -1.21828664520585    1.66986829413449   -0.13563458279986
H          -1.82232591107720    2.29804446514179   -0.53541759289191
O           0.93712668789435   -1.37665189116541   -0.45031986578752
H           0.38333604449582   -1.27053276245844    0.34156262717539
H           1.74965746672317   -0.88927586274648   -0.23589513200913
O           2.58808632059200    0.56380317454111    0.64339944654086
H           3.34256635645309    0.49765834397798    1.22969514377375
H           1.80686240145087    0.73694516752958    1.22389619346050
O           0.34884330196943    0.91845916565770    2.07021534410215
H          -0.10373577493091    0.06271692710883    2.10812962617422
H          -0.21782836929829    1.45856761230230    1.50388028265914
N           0.88167220108079    1.35743317692193   -1.64783295183410
H           0.77505252860343    0.38665322867456   -1.92416997378246
H           1.09914294381690    1.90612706484207   -2.46940569750975
H          -0.39776021831481    1.61464747692900   -0.74040251683880
H           1.67741740647486    1.39164963407154   -1.01657723726060
