    23
        -45.37448867  Gyration_radius:  2.38622065611 Dipole_moment: 0.755
 S           0.41446615833427   -1.62959267053790    0.75568615819954
O           0.42995433377464   -2.02701592960937   -0.64104494626220
O           1.21692466927594   -0.45395141627566    1.01482951035891
O          -0.94869405378307   -1.50583007184047    1.26331635330772
O           1.08504946567236   -2.81290673555875    1.57378920225742
H           0.53884260807855   -3.56825420696104    1.37548913216913
H          -1.73429331619396   -0.90150613288013   -0.16335978202409
O          -1.84805762860245   -0.37218741756254   -0.97695108408285
H          -1.31624281245643   -0.82111943396360   -1.64100622900863
O           1.41332134968887    2.52055015097122   -1.53206275636867
H           2.28961350790571    2.59087503450225   -1.14881188122023
H           1.36129546142568    1.62181600922178   -1.91695204188888
O          -1.64229379261677    0.83159482065367    2.45687846113740
H          -2.26677528531829    0.65901036460866    3.16209194299791
H          -1.38937797765603   -0.04321556458474    2.10232506101042
O           1.24743399942166   -0.09562212597736   -2.24473248985548
H           1.85610322364185   -0.51695654736773   -2.85304277679554
H           0.98395727736526   -0.79609903229558   -1.60688340392315
N          -0.34567521840049    1.50185707493295    0.20309227769350
H           0.34569619783554    0.80046882870819    0.58513852649498
H          -0.85289786863705    1.89264679117848    1.00028246047262
H           0.17895908821702    2.18170842507326   -0.38529480240735
H          -1.01730937697188    0.94372977556924   -0.38277690226659
