    23
        -45.34471948  Gyration_radius:  2.49926691871 Dipole_moment: 6.245
 S           1.87772801587378    1.14341585740224   -1.15238068101749
O           2.08165353554309    0.12845078409164   -0.16539507254122
O           2.50332078080067    2.39628229020222   -0.98557483310403
O           2.27538363174404    0.53250666137043   -2.55225736456170
O           0.33682215501291    1.35282284166942   -1.33048899734153
H           0.03839790134580    0.45371607718100   -1.65335200931088
H           1.91039105078314   -0.35589431949632   -2.57066147652136
O          -1.41737217939209   -1.62803939904854    0.01140665141580
H          -1.83420075430546   -2.46701357216652    0.20968688645736
O          -0.14222581142115   -1.02792986738497   -2.15899160707420
H          -0.79303013030041   -1.07353703407840   -2.86383615280717
H          -0.60177197830353   -1.36875059119333   -1.33546777556979
O          -0.81994907123067    1.28561414277163    2.82055306552079
H          -1.38668285543314    1.29565713839830    2.02291500468009
H          -0.34976180269363    2.12053799038404    2.82442641011476
O          -1.99331610929921    1.11906260573744    0.36119387654381
H          -1.97806523935491    0.15739735963123    0.24021562304166
H          -1.28142227918613    1.46890008664437   -0.18645986911912
N           0.37269037304413   -1.12554432315172    1.77143818539986
H          -0.70110539906621   -1.46951915105887    0.75585007896659
H           1.12756954306224   -0.74260015757787    1.20518661069990
H           0.01472215187785   -0.36348795159572    2.34940440109453
H           0.76022446084311   -1.83204745873545    2.38258903501121
