    23
        -45.37657409  Gyration_radius:  2.36968790929 Dipole_moment: 4.886
 S          -0.18189326710295    0.97865286493790   -0.95820150416378
O           0.94538691985293    0.25023041122664   -1.53814055392120
O          -1.36782297212215    0.15766572449607   -0.88916312276494
O           0.18834671213043    1.51405934721859    0.36250116205284
O          -0.49734008883660    2.19647293949472   -1.87818434330540
H           0.25401536685715    2.80413893451383   -1.72590714794678
H           0.56173654120183    0.35021990020304    1.40128489664990
O           0.79739715593735   -0.42114850092845    1.98265446124201
H           1.38690923395349   -0.07614383619267    2.65499427089248
O          -1.59088123328954   -2.57371529826755   -0.58097841860278
H          -1.91800483965234   -2.29812291926602    0.30235923256339
H          -1.76537017319839   -1.78941692807111   -1.12341650866318
O          -1.97715174936498   -0.97324678336383    1.52983455754631
H          -1.15027306639967   -0.84384688103212    2.00882076211833
H          -1.93354574494877   -0.36044567026608    0.77514967130199
O           1.43095751605194    3.56886978821673   -0.68934040482955
H           1.14269407215625    2.84130174931055   -0.10041066460959
H           1.11826995540443    4.38394437313437   -0.29020193131668
N           0.93455932188746   -1.97272444955825   -0.24446161588219
H           1.01208633996659   -1.61584434756042    0.72530433427551
H           1.01775351780976   -1.10309892272106   -0.87480600922058
H           1.65011649761587   -2.65967298667945   -0.45494997740309
H          -0.05794602589507   -2.35812848883586   -0.39474114599579
