    23
        -45.36140615  Gyration_radius:  2.29578724627 Dipole_moment: 3.831
 S          -1.51861610058410   -0.87904479730345    0.11544991640637
O          -0.18163752610231   -1.37612961697796   -0.12308877445852
O          -2.24594159719479   -1.55089938934179    1.13511546802370
O          -1.40044839704395    0.64108110754710    0.43797291477186
O          -2.30752413548027   -0.85566735081704   -1.19414356656357
H          -1.70175617043168   -0.45319857838246   -1.89726916286760
H          -0.67361068874523    0.77930291165554    1.16168821572840
O           0.52625772574348    0.85325225695451    2.04047719142750
H           0.49891627943519   -0.04657125675086    2.44477407494263
O           0.19993788645683   -1.73422888190838    2.52025414997424
H           0.23099117355546   -1.87678989555375    1.55969219692267
H          -0.71447896488264   -1.92065919404215    2.75665451748971
O          -0.76733428225876    0.31774485746251   -2.87082715845780
H          -1.28750530432669    0.79239933964082   -3.52323262774184
H          -0.29005415707885    1.00408621992370   -2.33595963599630
O           0.32915580075876    2.07551956429015   -1.22587505945056
H          -0.38597786497863    2.01502699020078   -0.57987858863709
H           1.09533722456715    1.64765257090754   -0.81274076533904
N           2.22934234669240    0.18666941207887   -0.15730936548555
H           2.90028487458740   -0.23624594994446    0.47614196294618
H           1.48575989410499   -0.50092308234434   -0.29576821670431
H           1.27011133674406    0.84009158998531    1.41494640833240
H           2.70879062642808    0.27753117265139   -1.04707408534992
