    23
        -45.37667506  Gyration_radius:  2.31222038616 Dipole_moment: 7.017
 S           0.81995903655268   -1.26931431236398   -0.33175959999969
O           0.63697943731162   -0.22358327986491   -1.35534209152347
O           1.50655776347425   -2.42519998335007   -0.83436210342004
O           1.72942813852833   -0.57856351581127    0.77641908386968
O          -0.43714251428723   -1.54370331222837    0.34424951876614
H          -0.92990158373940   -0.75094549109246    1.67150874933269
H           2.58652212111818   -0.52123522004376    0.30745692276918
O          -1.40961502999496   -0.22283796942213    2.35943200371512
H          -1.90376203227281   -0.86109615195377    2.87589313223754
O          -1.99163615718986   -0.26138166241642   -1.46997699481264
H          -2.00133202883440   -1.06822165913296   -0.93825489859482
H          -1.03599263087246   -0.17025803497983   -1.68339014613458
O           3.48013862743377   -0.72496709309338   -1.18706220468159
H           2.97778484002460   -1.56168471338294   -1.24142711384062
H           3.08465932823171   -0.15354084595771   -1.85132845071413
O           0.62852571055539    1.95344965081135    0.07590528284812
H           0.69082915477557    1.21017191250841   -0.57510238839148
H           1.11293359818523    1.63403888971069    0.84383611658014
N          -1.94155412180274    1.53578312876113    0.44989229007066
H          -0.94598082989683    1.89017981087916    0.32567450447987
H          -1.92753779030724    0.94431782950561    1.31585801417937
H          -2.61753994067650    2.28912266515565    0.49862512453883
H          -2.11232309631748    0.87946936776727   -0.37674473128748
