    23
        -45.36701625  Gyration_radius:  2.44916294471 Dipole_moment: 4.898
 S          -2.27627423253200   -0.06236465611519    0.14187609954894
O          -1.65339750150135    0.29966997509880   -1.13043700462160
O          -3.69573685850297    0.06218212576874    0.19537787462501
O          -2.00885611947503   -1.67059671446918    0.26868656374684
O          -1.53968264953101    0.51239389955726    1.26163418205071
H          -0.36650677723286    1.86284215961330    0.64768902878215
H          -2.91859813500871   -1.94307728069294    0.32263906107222
O           0.11026695514902    1.99004164997095   -0.18966021555518
H          -0.51436928380268    1.58543288035108   -0.82675106047413
O           2.99480558138832    2.07203148419687   -0.45419702997149
H           3.54655151164357    2.82993572569963   -0.65026931214791
H           2.08366407509726    2.39342193559240   -0.43009657603165
O           0.04265519585628   -1.58237588748666   -1.77776010404963
H          -0.63057651896497   -0.86526109021363   -1.68567704832022
H          -0.38024620227462   -2.35892894026731   -1.40431956883693
O           0.23764477469386   -1.22069787596305    2.06713835386773
H          -0.45264151868448   -0.53162113707031    1.90395498700367
H          -0.20933564797318   -2.05343177343062    1.90037643388461
N           1.55935548589714   -0.28015017361967   -0.03099609640866
H           2.55903242395119   -0.10747674499379   -0.10478235100154
H           1.17571944821523   -0.87064249730504   -0.81251754201220
H           1.26653826328770   -0.71421236878929    0.88115584295047
H           1.06998773030268    0.65288529457808   -0.09306448808291
