    23
        -45.36772483  Gyration_radius:  2.43914471398 Dipole_moment: 4.623
 S          -1.22132472298306   -0.91238395282921    1.68253221855883
O          -0.17049076419729   -1.92381385889489    1.69701894165445
O          -2.52741371620243   -1.36693283596517    2.02489515662651
O          -0.80948148961853    0.13687583346380    2.84263259092240
O          -1.13302698536647   -0.11634236666638    0.45227218464864
H           0.32382572423560    0.56626589079568    0.90578471139318
H          -1.48626467879348   -0.04352225860451    3.48613773293699
O           1.22371654718512    0.91574783492921    1.08157305266526
H           1.26836188991832    1.00129318721170    2.03586262962519
O          -0.69381329671580    2.35372959328462   -0.67269842880762
H          -1.11603806697244    1.55950284992366   -0.30660572347741
H           0.10808758114750    2.47137325835642   -0.15250575156918
O           0.16833504042381    1.33596800989742   -2.99684775161824
H          -0.40569292893813    1.62084518705822   -3.70904190338387
H          -0.13319976333745    1.81606264624300   -2.19076872423914
O          -0.23598799612131   -1.08324837252437   -1.93500175771730
H          -0.04812946559235   -0.25937379648832   -2.44141181179664
H          -0.82219448421891   -0.80851628535449   -1.20779083150060
N           1.58645304608084   -1.46797800141278   -0.13177452842084
H           0.96222770044167   -1.37589260152868   -1.00719038526674
H           1.88463343040161   -0.52364987020842    0.16223994019613
H           0.91351835031262   -1.79123695099476    0.64211346300819
H           2.36389904892031   -2.10477313969533   -0.26142503443975
