    23
        -45.37367120  Gyration_radius:  2.57085797751 Dipole_moment: 6.100
 S           1.30680170551495    0.21492260287712   -1.90449311799455
O           2.20447705358028   -0.13352559881372   -0.80922018361663
O           0.69820989533206    1.52375242765460   -1.69702241152847
O           2.21424553350071    0.34838041499253   -3.20248424151906
O           0.34238241752617   -0.82290323102171   -2.19925800780437
H          -1.17480435980298   -0.15902869309927   -1.81448409333616
H           2.81965213846037    1.05120542322307   -2.98636990921303
O          -1.80240212302690    0.45123494304813   -1.37062216618267
H          -1.39840394809851    1.31265864359012   -1.53281391069176
O           0.75145937987591   -2.09123769854383    0.17733198203552
H           1.46201580059464   -1.46014033043681   -0.07403256314750
H           0.36679957517988   -2.31801629332006   -0.67784937829883
O           1.08290480749589    1.67440682006788    0.89203232339104
H           0.89335122897617    1.84894043209959   -0.05711670495601
H           1.86030306223815    1.10398315096071    0.84087199058045
O          -2.38145236698748   -0.51920709206451    3.41693076572177
H          -2.33147124941924    0.05487959615378    4.18374955656992
H          -2.74251967034623   -1.36012396586116    3.70397887267869
N          -0.85472506950533   -0.14786301127526    1.04681553677780
H          -1.41393452017804    0.08121713483597    0.18200344560845
H          -0.29901154760954   -1.02042944971149    0.83732109186121
H          -0.15513762668156    0.63128489720345    1.17215416617588
H          -1.44874011678970   -0.26439112242747    1.87257698707736
