    23
        -45.36998189  Gyration_radius:  2.50991666273 Dipole_moment: 4.722
 S          -1.93265524050138    0.26543364516779   -0.59232207778922
O          -1.88787213236575    1.43368586230084    0.26206905236541
O          -0.99547829903681    0.32675553049287   -1.70421741765942
O          -1.77971522420543   -0.98271347944746    0.14949703858967
O          -3.39435056793318    0.25643002169727   -1.21396099193146
H          -3.80228458579190    0.96982976089996   -0.73343428714348
H          -0.46602081968093   -2.00456171333375    0.05233973240353
O           0.39457223577224   -2.48510784472715    0.02415460737017
H           0.28503712960438   -3.17749839887899   -0.62862101428902
O           3.22041273068838    1.52998083728614   -1.76085781038385
H           3.44685346009052    2.32114403552745   -1.26655061909480
H           2.78620964322077    1.81168619974514   -2.56972070475210
O          -0.65027237036518   -1.04607582277673    2.59825219941050
H          -1.24393122106591   -1.00528320247099    1.82433765384467
H          -0.08858136038527   -1.80961909183049    2.44279438585811
O           0.35212218561283    1.28104176710174    1.68908082153946
H           0.08609392942647    0.54022047845601    2.27235129021154
H          -0.48529434386284    1.53918184100976    1.24865133726479
N           1.26583761233498    0.04230860431428   -0.42419004597666
H           1.29610128559051   -0.97400850213255   -0.23524629316475
H           0.42901784466959    0.19877635999563   -1.05234721241193
H           1.04172078629591    0.56810823007126    0.48303195299404
H           2.12247733188773    0.40028486152580   -0.86509160723122
