    23
        -45.34456740  Gyration_radius:  2.55436409666 Dipole_moment: 1.434
 S          -1.61186689054409    1.65530705898541    1.03427759589645
O          -2.08249766690329    0.68224935493464    1.97914243287283
O          -0.45941421137043    2.41010540949287    1.37326802106522
O          -1.44870855126911    0.97436424162650   -0.33720248243382
O          -2.78414527587932    2.67146501128098    0.76196203791929
H          -3.60306204693386    2.17995025582924    0.78215865269830
H          -1.40356547040368   -0.03740157644315   -0.17196223590236
O           1.18144301532361   -1.58451707844205    0.99953958979263
H           1.46707714987291   -1.71055087167063    1.90477327227740
O           0.58011089434709   -2.21911683023756   -1.68305902867803
H          -0.36274125034208   -2.18696776515996   -1.50041346437089
H           1.01239661868964   -2.21735081577870   -0.81790601130521
O           1.46306639009747    0.22698955459535   -2.55069352568932
H           1.97974698256278    0.11410498223437   -3.34938254895382
H           1.11370186999818   -0.65753072084155   -2.32564573495682
O          -1.39080012367335   -1.41101018683731    0.46207820601855
H          -1.81219179930245   -1.07954882521396    1.26869732364951
H          -0.43747553607136   -1.56000373267679    0.70057642399992
N           1.75658978168539    0.84132955607910    0.29066184649397
H           1.06263203046550    1.48073901552158    0.66989503180652
H           1.64846323741824    0.83909235001193   -0.72300527207094
H           2.67209042519197    1.22067152596489    0.49763429932506
H           1.45915043704460   -0.63236989325691    0.73460558053813
