    23
        -45.37820750  Gyration_radius:  2.25225857028 Dipole_moment: 6.090
 S           0.41932131006427    0.25121236287715   -1.35354442087093
O           1.15279589124212    0.99298779556553   -0.32848225100454
O          -0.11351386630834    1.07437640254615   -2.40178982135864
O           1.53126734892777   -0.67133794216423   -2.06360319998786
O          -0.51404726463479   -0.68917646057513   -0.75983671761906
H           0.44953586610004   -2.04570554201002   -0.35615763710930
H           1.77696775670925   -0.14332629172637   -2.81676920748493
O           1.19593391612544   -2.58085861937546   -0.01466598675374
H           1.83357856168418   -2.59721251456826   -0.73190623797955
O          -2.46888117433958    1.51294809006128   -1.21663163525114
H          -1.68387367463432    1.46911662979043   -1.79217202625610
H          -2.78603796789500    0.61007260665350   -1.14502013304742
O          -1.31717628032881   -0.35131895600296    1.88530027212800
H          -1.39665112584700   -0.71328849668759    0.99010848498251
H          -1.34697242567265    0.62994742514045    1.74394970118676
O          -1.00975737391238    2.10234219599697    0.98659963028363
H          -0.16714926723809    1.95303873792267    0.53262823066713
H          -1.68090902136677    2.11105822621525    0.27640606101958
N           1.25852972362787   -0.58671219878851    1.74856327580219
H           1.42051196666287   -1.50992963342995    1.28698296202960
H           1.35997136832132    0.13776821397696    0.98305224635254
H           0.21039813917672   -0.53973550448482    2.01313884080727
H           1.87615757295281   -0.41626652635945    2.53384955930937
