    23
        -45.38150346  Gyration_radius:  2.27701482657 Dipole_moment: 3.782
 S          -0.73621627327710   -0.19526249878191   -1.07418067687135
O          -1.57589178370724   -0.35492100564481    0.10360647538995
O          -0.48699555436023    1.19734432462850   -1.38636378876775
O           0.52224839418989   -0.94516347524911   -0.91014698624623
O          -1.48226655205070   -0.81062038436741   -2.30161762064547
H          -1.44035546825742   -1.77552129286667   -2.15986156110733
H           1.69083403905624    0.25549355803313   -0.71302694452063
O           2.10395052780790    1.12992244195625   -0.53741825939962
H           1.59452094236652    1.71856276905749   -1.10734578904124
O           0.14537402256575   -1.11440549933738    1.90285022247867
H           0.73543431668655   -1.62152931554880    1.33756903659656
H          -0.62985702205107   -0.92109422663655    1.31933968419344
O          -0.56543720958547   -3.21809073468483   -1.63125310943621
H           0.01168854276243   -2.52019279918541   -1.25847417327827
H          -0.05683878883507   -3.65886165302241   -2.31535601582564
O          -1.35480780076707    2.27590200140043    0.84319140376752
H          -1.95723824806010    1.54580950618764    1.03263043700082
H          -1.08766819993932    2.09268712988727   -0.08565652911753
N           0.93292789120420    1.40235418698317    1.81856699592374
H           1.38944948946561    1.85858327690790    2.60026042398998
H           0.01851317961172    1.87999081991797    1.54875516616394
H           1.53980260244246    1.38955932596270    0.94666269728366
H           0.68882896273039    0.38945355439467    2.02726893146572
