    23
        -45.37126171  Gyration_radius:  2.37080832395 Dipole_moment: 7.036
 S           1.05760568209658    1.04077039576060   -0.94859877622178
O           1.50222282643808    0.61563783492052    0.38763256604457
O           0.96231055987220    2.45980673121759   -1.09367530912206
O           2.12056208984786    0.49897768234270   -1.95863758632398
O          -0.20586905712831    0.34264323139099   -1.27938054982402
H          -0.54693784869581   -1.09055234273746   -0.88867434939035
H           2.15103466522656   -0.46298442999632   -1.77826734437913
O          -0.72162999851641   -2.03267933929249   -0.57088239176989
H          -1.53418189489667   -2.30488759940947   -1.00031885032677
O           1.87222377545042   -2.14677343749235   -1.55901063392826
H           1.83119223681138   -2.52641199959449   -2.43941164154211
H           0.99219644849237   -2.26273642008808   -1.15951128626266
O          -1.82201559123965    1.23928461344096    2.30577433575787
H          -1.51088418149254    1.91943724488508    2.90548465913481
H          -1.82577466866810    1.66114134709331    1.40495367943152
O          -1.55912842707859    2.28280853049647   -0.09454828497247
H          -1.33420417945474    1.50862720654742   -0.64184205013317
H          -0.79703307489355    2.85807331153060   -0.25221840854924
N          -0.13816982494746   -0.74581612852752    1.76131317838479
H          -0.52614525317685   -1.42047770139205    1.08152210970143
H           0.61498781300281   -0.17042248267588    1.20213588728219
H          -0.86662975541568   -0.04552885420564    2.06378011620856
H           0.28426766833801   -1.21793738417601    2.55238092081994
