    23
        -45.37657411  Gyration_radius:  2.36987647992 Dipole_moment: 4.888
 S           0.07760609389725   -0.02191313294095    1.37950268210219
O          -1.37146456156855    0.05533346378715    1.20068065826831
O           0.61388618186290   -1.25588093564308    0.85516370956759
O           0.72461124879825    1.15443508005522    0.77469542993732
O           0.38074783366409    0.01912115468777    2.90760957523577
H           0.18210378087103    0.94304570035054    3.16020928448665
H           0.46738184562262    1.23858391822090   -0.80609347044921
O           0.24944291431827    1.23612503065171   -1.77621290716953
H           0.31733752387662    2.14728109546833   -2.06564541254098
O           1.79759213390615   -1.16934650341988   -1.61258449933570
H           1.49775649340042   -0.31043831685798   -1.93236610469262
H           1.65148241899698   -1.14879150936606   -0.65067800739979
O           0.19660283332373    2.66086929440131    2.85416290666754
H           0.38368101513120    2.33214598076053    1.95067469033951
H           0.99574385219584    3.09813841067701    3.15677656634724
O          -0.28816353204372   -2.80523267551896   -1.24142101854244
H          -0.08915834100268   -2.73753020674625   -0.29506844134815
H           0.52950130737678   -2.45439550086860   -1.65592298080491
N          -1.69195661743481   -0.59586785169118   -1.26694211222107
H          -1.21628356623605   -1.55680291123321   -1.34727105805142
H          -1.68863619966703   -0.34605835431109   -0.21916016982919
H          -1.08917465564053    0.11525704528954   -1.71967710983848
H          -2.63064000364666   -0.59807827576076   -1.65043221073418
