    23
        -45.36512690  Gyration_radius:  2.54798618228 Dipole_moment: 4.382
 S           2.00977857599787    0.69984647019393   -1.46476595544807
O           2.60051576946025    0.66670041569157   -0.12675571945594
O           1.02147598882820   -0.36337638865644   -1.63819373202873
O           1.50090118995646    2.00239100813917   -1.81381006128628
O           3.18359751921637    0.35656623834123   -2.48212324803180
H           3.72815001311821    1.13882483670478   -2.47601746969326
H          -0.61231493342651    2.03969846566255   -1.14622938053518
O          -2.56250376582316   -0.77855002202092    0.08755996292248
H          -3.42632040329108   -0.82457262733320   -0.32447748041679
O          -0.04084652319157   -2.11262798854635    0.11737750809758
H           0.41392167039367   -1.72270159134655   -0.65413352864850
H          -0.98715395506834   -1.97754095369472   -0.03039600420504
O          -1.73513654884380   -0.32501730820902    2.75786493651900
H          -2.23785151793377   -0.84146854576891    3.38815414889768
H          -2.09775033087368   -0.53507720072655    1.88291649656719
O          -0.91545148084588    1.17949614284158   -0.83603137841489
H          -0.27770248020173    0.56268584297202   -1.27018696735092
H          -2.10823700254322   -0.01106907422575   -0.30501352213031
N           0.51605719681049    0.18263366890229    1.30417176509496
H          -0.16891738319856    0.75642770302408    0.78297447138070
H           1.47594146306244    0.41129320185197    0.89565065406559
H           0.40712311993052    0.32300542426895    2.30519610314835
H           0.31272380848377   -0.82756771804757    1.04626841091733
