    23
        -45.37060246  Gyration_radius:  2.45400710801 Dipole_moment: 2.788
 S          -1.55756261645248   -1.43667136201013   -0.27128044946910
O          -0.66313834632341   -1.86667927048907   -1.32694396697537
O          -1.02268871403884   -1.62399085284930    1.06422745331928
O          -2.02999370450139   -0.06596998588113   -0.47429405388718
O          -2.83520144567652   -2.37781017527708   -0.36656009128731
H          -2.91463242432655   -2.52957944521358   -1.30308833788243
H          -0.76128451408264    0.73717087411687   -1.54214685285201
O           0.15500788151599    0.55065121607792   -1.81485704928334
H           0.12756306752633   -0.42869331121688   -1.87233466901580
O          -1.23665385774420    1.00687631499725    1.78380807832483
H          -1.68794188373897    0.77294973762520    0.94052404670043
H          -1.24151500349918    0.16724852750628    2.25827983988082
O           1.57597803053843   -1.58407765886154    1.41903824499250
H           0.61809324521972   -1.72222800046517    1.22449669274448
H           1.76175044119984   -2.09397269989453    2.20856776996004
O           2.10854869083710    2.62383769445578   -1.33159534258303
H           2.45759862901594    3.23558732903674   -1.98049214578445
H           1.50074821815858    2.03804482621259   -1.80307841507254
N           1.15353521361048    0.93507942852217    0.65706729736057
H           0.26768337389399    1.13169445014541    1.20808422841512
H           1.57561741290815    0.05693791271595    1.02434821890779
H           0.84745877723259    0.75307149140274   -0.33581944781835
H           1.80102954886207    1.72052293942746    0.63404892127348
