    23
        -45.36519635  Gyration_radius:  2.2799668362 Dipole_moment: 4.971
 S           1.08056602259814    0.96235538583226   -0.29388155336717
O           1.20443961318814   -0.45827904770065   -0.06574763294950
O           1.31633993534663    1.39232132143009   -1.63297037152848
O          -0.36244780059456    1.38535588486057    0.14210861000672
O           1.94318187906929    1.72659932975801    0.69303056409328
H           1.93552874053879    1.16819932147026    1.57156909484235
H          -1.03584186255591    0.87426260284077   -0.40650361095910
O          -1.95837259730383   -0.00033341707629   -1.32981266883298
H          -2.51279510983397    0.56514606435199   -1.87110496908246
O           1.74913505554527    0.17428398934303    2.64881945470103
H           1.84475048022280   -0.65137977356386    2.16188956948930
H           0.78028657528502    0.24309267251782    2.87879761956246
O          -0.86438357476752    0.33454210792266    2.77141246291195
H          -1.00400783591958    1.07383062394689    2.17105132334582
H          -1.06988406765585   -0.46980023327787    2.24594506953392
O          -1.06032480713642   -1.58104006568368    0.89257943181466
H          -1.70660135702077   -1.31781836892862    0.22931510469392
H          -0.19277645837176   -1.33576099546685    0.52404638835147
N           0.03522045548063   -0.87705222053546   -2.76190999478294
H           0.62045780518179   -0.05353761069308   -2.62483494170122
H           0.48033991281914   -1.62977218625834   -2.25061559105539
H          -1.26324869455080   -0.40805162229294   -1.94742497053509
H           0.04043767041825   -1.11716375281549   -3.74575839856164
