    23
        -45.37749257  Gyration_radius:  2.24582702153 Dipole_moment: 7.300
 S          -0.18815688577804   -0.62318806374472    1.38648768661489
O          -1.33471072612746   -0.67690483540077    0.45269128569720
O           0.32386280055345   -1.94123823359066    1.66456704398009
O           0.84136546648295    0.25629331063096    0.80986429622151
O          -0.68376995887738    0.00818627339303    2.70216659369383
H          -0.68283427939996    0.99826678747711    2.54857063278395
H           0.75735736897106    0.85791840225887   -0.67283754593213
O           0.65614454622066    1.16139454871250   -1.61597235980293
H           1.41661617117675    1.71234106372293   -1.80562638670044
O          -1.80990526112613    1.84937676632288   -0.31345140706223
H          -1.84238189219360    0.91781325090763   -0.02219090021110
H          -1.14007377278013    1.87446478924723   -1.00802403639206
O           1.82607066203382   -2.38890372639402   -0.39195246225674
H           2.52228782351960   -1.74252893933344   -0.25338581361453
H           1.30709717478698   -2.37890840062570    0.45442941469180
O          -0.39796602014982    2.42910238424359    1.88382023602149
H           0.41093924985126    2.06261093423344    1.50131276379655
H          -1.04673840343071    2.45033117887428    1.14401657800481
N          -0.19640032693958   -1.38207598323833   -1.73484345872982
H          -0.69430005881641   -1.92805975952490   -2.42936119256215
H          -0.80374308333687   -1.17147842204212   -0.86474676944278
H           0.65664609732381   -1.88759504550094   -1.34530288320203
H           0.10259329803708   -0.45721828062917   -2.09023134559065
