    23
        -45.37762311  Gyration_radius:  2.30390350947 Dipole_moment: 7.367
 S          -0.13430574912790   -1.20181888947723    0.81064830969886
O          -0.37670303154949    0.16514883392087    1.33023838934826
O          -1.38395897497252   -1.85990874195073    0.51538244657024
O           0.74914758630761   -1.12251556636872   -0.35456186527139
O           0.59601645517105   -1.98811631105600    1.91840385708059
H           1.54496969858895   -1.68362410330482    1.84698382414326
H           0.82095569158798    0.18307959303172   -1.24327414659884
O           0.79540465004525    1.03482019492838   -1.76398935614552
H           0.98068536764077    0.78729063162976   -2.67120636971104
O          -2.94005592651098   -0.73864655470219   -1.23663541809734
H          -2.34182823474128   -1.26826128599698   -0.64641331983794
H          -3.83066933556344   -0.98684892374825   -0.98192593101053
O           2.90582026750959   -1.03780227228865    1.26481779597583
H           2.60275011013403   -1.24738215908020    0.37071166690971
H           2.79189605633022   -0.06623516780755    1.34039531369426
O           1.93494545546693    1.46429549079736    0.99817149915080
H           1.07468299641441    1.07743937333379    1.25432951427910
H           1.87474849419643    1.62272630866789    0.05053618531640
N          -1.55784641200692    1.41047253090780   -0.57214694166775
H          -0.73762971995879    1.46934776580979   -1.21925262129518
H          -2.24276946732407    0.69647967593033   -0.93580128411627
H          -1.14437837377377    0.97451494686820    0.32627660603757
H          -1.98187760385687    2.31554462995791   -0.40168815446019
