    23
        -45.37081322  Gyration_radius:  2.45359206702 Dipole_moment: 5.887
 S           0.96514809302885   -0.36703331223856   -1.53641706017554
O           1.26616074126000   -1.28145246100364   -0.42946795294203
O           1.33242881510679   -0.89647304354293   -2.82258474961383
O          -0.62810241936042   -0.21307376569669   -1.51932626992984
O           1.45063944415118    0.97143040312995   -1.25445282062231
H           1.13179542987174    1.78315904091989    0.02026765362178
H          -0.92100175452292   -1.05399062562979   -1.93084767548987
O           0.93290081666544    2.23291460521412    0.89660101737682
H           1.43741106839665    3.04728873379993    0.88747723552953
O          -1.70181608712846    1.38668587166166    0.46948644741298
H          -0.90695399463170    1.91108417149154    0.65137785777851
H          -1.48455751836952    0.86958880857301   -0.32186349400182
O          -0.76265117856636   -2.42618522570348   -2.92061154322589
H          -1.14428038871953   -2.38117844192518   -3.80024691348530
H           0.15544320249250   -2.08313056931306   -3.00270577985698
O          -1.69031477124693   -0.35434603837933    2.44908096763844
H          -2.16956521745595    0.00739372418782    3.19537300492774
H          -1.85327888069689    0.26078573129039    1.68800516779086
N           0.92672949223991   -0.28456542181404    1.88736573694131
H           1.06723827152147   -0.75789794104484    0.90472656413846
H           1.05564824436598    0.73368754871498    1.73355878604712
H          -0.05802008890170   -0.44940094195308    2.20586476517291
H           1.59899868053408   -0.65529086076011    2.54933903499879
