    23
        -45.37310748  Gyration_radius:  2.41778216788 Dipole_moment: 4.061
 S           0.04139973674001    0.78733556605514    0.61631892625146
O           1.21709387765078    0.94981698877396   -0.26501658477240
O          -0.53777300083813    2.03643724322369    1.02431025399693
O          -1.02236817519844    0.02790254632545   -0.28988381406207
O           0.33989565741169   -0.13856211187253    1.69085136011147
H          -0.23732621443163   -1.66880314617153    1.98673092114345
H          -1.02545728493879    0.60035735297294   -1.11607184806331
O          -0.52853741846981   -2.60833845718098    2.00741839753559
H          -1.36232333415622   -2.61361940070439    2.47912264185802
O          -0.56660690220076    1.64948400558413   -2.20696537968723
H          -0.93145370131061    2.51044735438743   -1.90465120993243
H           0.34368595014505    1.63670672144596   -1.87765155376330
O          -1.36162320291508    3.76992252570168   -0.79489573205600
H          -2.26599897298610    3.98813288050035   -0.56393698561889
H          -1.00863368278849    3.25000790226025   -0.03968069529572
O          -0.16788558326781   -2.57265250778875   -0.62871542694885
H          -0.39966854147092   -2.86408994571229    0.28003175074320
H          -0.66269037696996   -1.74364940089115   -0.74209976107952
N           2.06773922195604   -1.42191891638028    0.06116430493288
H           2.96339301225605   -1.70686183768804   -0.32178635886802
H           1.23937610577022   -2.00051575986142   -0.32099582097922
H           2.04448627478173   -1.49040444207858    1.07890245924409
H           1.82127656518794   -0.37713515088737   -0.15249982467726
