    23
        -45.38060574  Gyration_radius:  2.25762023299 Dipole_moment: 4.829
 S           0.75558240184170    1.42904883401417   -1.00217417482652
O          -0.03368034735029    2.49223918925684   -0.42924054855109
O           1.70016898264681    0.81022274629396   -0.09505894358506
O          -0.08040274254114    0.41363912737054   -1.65875572239392
O           1.60754094665036    2.10054682310810   -2.16015101837315
H           1.14996124111343    2.92767269105014   -2.26414717174721
H          -1.37649296732567   -0.15101615794323   -0.90667120255266
O          -2.10993925805521   -0.58644046469659   -0.39574709619643
H          -2.82939324756254   -0.70575496875062   -1.01728196988690
O           1.49087751830059   -1.63028473148717   -1.19284866355152
H           0.88364879109331   -0.97751716891979   -1.60443197673943
H           2.14381585663361   -1.05419618983352   -0.77177865031131
O           0.68578156776345   -0.03284396366817    2.21255925122450
H          -0.11888189204596    0.54118763779321    2.21511370941956
H           1.23833054633117    0.35084724881536    1.49992185141313
O          -1.44545104808412    1.37612503267761    1.54933534549121
H          -0.98060726842944    1.94287491564156    0.90206856384186
H          -1.96486230750417    0.75931513869142    1.01761471064143
N          -0.15576036739721   -2.03911624259599    0.83059830333907
H          -0.24721300753628   -2.94652238535605    1.27199120820858
H          -1.05757054408912   -1.70003512211081    0.45096594122229
H           0.20460759356423   -1.27089009539590    1.52373844843936
H           0.53993955216213   -2.04910189399914    0.02437981528047
