    23
        -45.37126161  Gyration_radius:  2.37055278401 Dipole_moment: 7.043
 S           1.14374871303560    1.13115381447490   -0.72103835054536
O           1.65216381629346    0.10861437420553    0.20618295991399
O           1.41335167208831    2.46969797357200   -0.29761638256704
O           1.85821178964937    0.87851931593860   -2.08840652926236
O          -0.29561720737173    0.88415225221778   -0.96665244812644
H          -0.94905088755858   -0.48903879466032   -1.06954774020901
H           1.65575986151656   -0.05770822062456   -2.29150773460160
O          -1.32271959755720   -1.42647002015290   -1.09311650853625
H          -2.23395456293555   -1.33539195850900   -1.37621969700930
O           0.97142989270196   -1.59544752227569   -2.65170534404533
H           0.70236972855168   -1.55922895582882   -3.57211726241250
H           0.16066991027744   -1.70163754467994   -2.12372083411700
O          -1.05398163415368    0.46043314175289    2.97446083444830
H          -0.48436561233977    0.75277360482212    3.68804151461072
H          -1.07911186472390    1.21613738314315    2.32827878644392
O          -0.88222624849719    2.35239875459619    1.15445079913712
H          -0.02678018839062    2.79040886798153    1.04116893688856
H          -0.95789922698409    1.85541089421749    0.31971744286394
N          -0.06818097038297   -1.37996025634834    1.32711881806289
H          -0.72151044690509   -1.61848990177385    0.56278545074528
H           0.71904878257692   -0.77134308581251    0.85734672842163
H          -0.52695599611386   -0.75320457748267    2.04061052743650
H           0.32560029722201   -2.21177952877787    1.75148604246167
