    23
        -45.36731861  Gyration_radius:  2.55118385058 Dipole_moment: 3.837
 S           0.44969515577224    2.13173491245802    1.32503637402429
O           1.13059721000352    2.32091287749060    0.06100896739817
O           0.99345487148973    2.82701424567009    2.44709095711472
O          -1.04403496445925    2.72632408294051    1.13568660988692
O           0.21945398975535    0.68864959286462    1.55122501065011
H          -0.93983598338071    0.50228908793611    0.42272805637615
H          -0.99692769798266    3.46928186576130    1.72776015009973
O          -1.56510396086904    0.43390276737992   -0.33893591143064
H          -2.16194755658657    1.17646086566732   -0.22332049744738
O           0.45240093500560   -3.17401399199935    0.03230856029034
H          -0.42840159844805   -2.90811297633603   -0.32386616578611
H           0.28579253857616   -3.50823237769258    0.91530818879943
O          -1.87232993622266   -2.21078639407821   -0.84273086349722
H          -1.85170531943544   -1.26501432844651   -0.59574056086914
H          -2.02565811720113   -2.23951952758477   -1.78854995864702
O           0.63732942376300    0.73372656171833   -1.96762869246536
H           0.89993636279669    1.49622692472302   -1.40305144723687
H          -0.29590320956942    0.59922410655207   -1.73566586091851
N           1.64935106270649   -0.77949791713948   -0.07921877469482
H           2.65636692364362   -0.74500505520960    0.03191540664929
H           1.17144646242281   -0.21656160248552    0.68270352614146
H           1.35014792853559   -0.29367267996813   -0.98329115879121
H           1.28587545968759   -1.76533103022189   -0.05077191563655
