    23
        -45.35125823  Gyration_radius:  2.61960503629 Dipole_moment: 7.472
 S           1.64695292004578    0.06255008124392   -2.51964768756710
O           0.99331536016050    1.28686754778858   -2.15228090357442
O           2.84578216705470    0.13961124926898   -3.25920136605123
O           1.87420856128412   -0.76832430632837   -1.21712861060148
O           0.60927243708734   -0.83042950971656   -3.29882509134427
H          -0.16726274290200   -0.92781485287770   -2.73437376850168
H           0.92814401497279   -0.92571732127555   -0.90916260609827
O          -0.54532267496851    1.62353855966803    0.01926866296436
H          -0.06218580155620    1.83511350909478   -0.79743952606513
O          -0.63807403432726   -0.91075126219893   -0.80346846744638
H          -0.77538255121007    0.04608449360044   -0.59510675589915
H          -0.84727064659601   -1.36053342743416    0.04398972912849
O          -1.22579791659338   -1.60925695234824    1.72980241128281
H          -1.84678328142324   -2.31484308449298    1.91597658042721
H          -1.72640620821184   -0.76779811239428    1.82801380271912
O          -2.48512914798458    0.76977068225740    1.73819515370311
H          -1.96581158129481    1.20086746047802    1.03659315490657
H          -2.47291395390163    1.37022801885406    2.48508810458903
N           1.25748239579849    0.37100122154502    1.60016844396665
H           1.75902092417975    0.75544026180054    2.39058697825564
H           1.94055130804671    0.06074462228278    0.91747005178326
H           0.75079899761802   -0.44809975025596    1.91938784789826
H           0.15281147470596    1.34175090146051    0.66209387153091
