    23
        -45.36818594  Gyration_radius:  2.46416268221 Dipole_moment: 3.456
 S          -1.56694408576488    1.30133506269813    0.84997032047301
O          -1.49405544025014    2.39503010671670   -0.08831261520753
O          -2.36972884959114    0.18980574844739    0.33615340114502
O          -0.25496178867555    0.84575960560658    1.29408776295429
O          -2.30618883416661    1.83578689176655    2.14853311373026
H          -3.02926796395016    2.35171105100151    1.80282195385308
H           0.55292293151551    1.20170350731903   -0.06367231857627
O           0.85271747773223    1.35126257265834   -0.99568514136079
H           0.38508844699018    2.15930628357130   -1.23551684633286
O           3.16262734363195    0.12217263891554   -0.00588204473507
H           3.52906721223026    0.76386883454785    0.60516429734490
H           2.50659757237969    0.59377500176772   -0.54027604126705
O           0.11321941223309   -2.86927676580998   -0.45873337493177
H          -0.54557419300524   -3.37438469182201    0.02082282131718
H           0.64648762785090   -2.39104366034668    0.24344534077645
O           1.29440458527073   -1.40246463970978    1.32734530730611
H           2.07994017268268   -1.00826231822724    0.90385863819701
H           0.68881310208795   -0.65713430318052    1.48545585835244
N          -0.85057449647597   -0.68668484338441   -1.55796211203620
H          -0.45670288100746   -1.61903382928719   -1.21499013744122
H          -1.26878438164207   -0.77387031484812   -2.47780603282150
H          -1.57285925391363   -0.36541221362737   -0.82943140978156
H          -0.09624371620741    0.03605027519537   -1.54939077096209
