    23
        -45.35443494  Gyration_radius:  2.40383831672 Dipole_moment: 5.070
 S           0.39557160108754   -0.99218859774385    2.12407742495915
O           1.44279164909304   -1.48887145665106    1.27618326180153
O           0.59414183099572   -1.01852008664658    3.52436617946896
O           0.08737085674489    0.47911776146538    1.65269208971094
O          -0.93604740488753   -1.71557685849116    1.79573552833152
H          -1.16583584783989   -1.59548541252166    0.83190272114601
H           0.71917413679351    0.68915163630683    0.89708175867259
O           1.69221250579881    0.96387014358479   -0.30745839512642
H           2.55616635767887    0.78356499706697    0.06918376306721
O          -2.04684516945211    1.26296281472393    0.00023508922448
H          -1.55865614971509    1.21181957123512    0.83255524133354
H          -1.51234633281944    1.84272231088461   -0.57894411461091
O          -1.73525387018403   -1.24176803940282   -0.63653003261861
H          -1.89982773574776   -0.26464993648574   -0.49024992346425
H          -2.60239558671128   -1.64594590730457   -0.70742900373844
O          -0.17594848031719    2.76159792155036   -1.27803362209884
H           0.58419659816351    2.20792699427399   -1.03934057661608
H          -0.00358568585481    3.63687427052960   -0.92728667460969
N           1.09966685569392   -1.24987331128099   -1.51885045656255
H           1.35597969846883   -1.78157987571657   -0.68961169806929
H           0.09394838330291   -1.32646046234026   -1.62354636656826
H           1.47218828086946    0.14337905271585   -0.87825820941894
H           1.54333350875835   -1.66206751970851   -2.32847396420822
