    23
        -45.36793278  Gyration_radius:  2.43963048911 Dipole_moment: 7.235
 S           0.30011007790093    2.16547950111248   -1.08119655083735
O           1.34544448235738    2.08932820278316   -0.08078791912462
O          -0.10869673573610    3.47915148923412   -1.46097356477506
O           0.92346849251587    1.50397526389013   -2.42530995985849
O          -0.80181785300969    1.24723513420423   -0.75106904415913
H          -0.31427634668721   -0.17294570101195   -1.25912602283744
H           1.17627960752905    2.30267524528222   -2.87425577545667
O           0.08452590622009   -1.03758579434629   -1.54742731329108
H           0.34356024460333   -0.88742849161081   -2.45865236831989
O           1.88926477434445   -0.37500814056341    0.40930774019533
H           1.79596077570723    0.60836368462718    0.27931713972481
H           1.49627666653391   -0.75505072856100   -0.39590739985096
O          -0.97205679408023   -2.80522399979225    0.21375830391538
H          -0.72057343315511   -2.21065514103494   -0.52064970031786
H          -0.56722892494926   -3.65256133428733    0.02244011022009
O          -1.67323693993456    1.09406737655617    1.68839264434386
H          -1.32935725707562    1.28057049286046    0.77828627582697
H          -2.62346970426886    1.00907585787309    1.59085722585446
N          -0.05364264067789   -0.98913505983971    2.00563906925614
H           0.82638026223868   -0.69983862242987    1.43050922416671
H          -0.48738181996004   -1.78384171176312    1.49189813356187
H           0.19076298739910   -1.23940329708930    2.95666540383371
H          -0.72029582781827   -0.17124421609407    1.98828433793211
