    23
        -45.37628077  Gyration_radius:  2.354490041 Dipole_moment: 3.286
 S           1.26746563569804    1.64055601981671    0.20376569400265
O           0.35955761746628    2.45405982975305   -0.56906232904048
O           0.92522674760428    1.53412548477245    1.60490534556578
O           1.49165122483995    0.31555334343658   -0.39153869771081
O           2.68956188614659    2.34661917278571    0.12034691181677
H           2.47946386819780    3.24008223751097    0.37152488451215
H           0.50601143928119   -0.12334270071910   -1.63248597020674
O          -0.17386319097404   -0.44642132680023   -2.27216869148076
H           0.04247311805044   -0.04583297424215   -3.11503905644914
O          -1.00788534329368   -2.66488093068316   -0.96520570295733
H          -1.94917416972021   -2.50812566969580   -0.86254902682307
H          -0.69087608597142   -1.99732150613054   -1.60316063752834
O          -1.23048703794754    0.11151068391754    2.15751871303998
H          -1.70191869946286    0.36954774209586    1.33782741789503
H          -0.50855324628686    0.77202919878802    2.21406232096933
O          -1.76427182255976    0.85666251744253   -0.36027245822184
H          -1.51318614710688    0.31313869966636   -1.11951364403159
H          -1.13518356199663    1.60228150640694   -0.39378860533805
N           0.39602218497006   -1.58474466187426    1.06809893555436
H          -0.11409219183520   -2.16378641375242    0.36087539553179
H           0.96934980013015   -0.87060296849993    0.54316711159961
H          -0.32034684715042   -0.99943476226657    1.63379942320977
H           0.98305482195458   -2.15167254174747    1.66889265614385
