    23
        -45.37623423  Gyration_radius:  2.39713452949 Dipole_moment: 1.839
 S          -0.35997545082502   -1.81755813441137   -0.36452471140621
O           0.23226419476856   -1.00728878486612   -1.42137948075214
O           0.54766921125765   -2.08126392609716    0.72437766457853
O          -1.62637101870841   -1.23977227847633    0.07971430679163
O          -0.70856773377026   -3.21755264066873   -1.01995069810624
H          -1.22979683827456   -2.99126146745628   -1.78525002398442
H          -1.11825169581204   -0.40345048092107    1.46277083950442
O          -0.57658899220386    0.12686180108621    2.08420080653763
H          -0.02108719330511   -0.51837304172519    2.53047656222505
O          -2.25218107795433    1.26045974590133   -0.65389843715726
H          -2.02124547679664    0.31893922868936   -0.51510283170067
H          -2.75671369819562    1.51311591018878    0.12220331989306
O          -0.26160996972880    2.99327774975130   -1.18650121047401
H          -1.05972451219003    2.44144142677600   -1.02507698493317
H          -0.17295648214852    3.05194867399444   -2.13894506816113
O           2.85606319223119   -0.72169446945109    0.95075860455792
H           3.59962537867773   -1.31694084202809    0.85250055852971
H           2.05497332242972   -1.28285836229182    0.89720475845557
N           0.99426500777538    1.00725079692389    0.08261428015319
H           1.97631601531210    0.86362963511414    0.33864207149281
H           0.40350963217184    0.83504779962869    0.93491940669513
H           0.76232698993948    1.93322516562548   -0.33667814893872
H           0.73805720843961    0.25281649675377   -0.61307556397986
