    23
        -45.36191927  Gyration_radius:  2.34771198278 Dipole_moment: 4.898
 S          -0.02644855074920   -0.60530156668072   -1.58607272213739
O           0.37679214803723   -1.97864422831907   -1.69143033200444
O          -0.44730848197773    0.03568149864818   -2.78669502179453
O          -1.14475357232100   -0.47262046336266   -0.53595110910217
O           1.15639061131315    0.21561778419843   -0.99592683993215
H           1.11668139919150    0.31215014738206    0.00323285080539
H          -0.92672640910927   -1.01434896222449    0.31452162070311
O           0.97360566253230    0.67105882969700    1.53382127140365
H           1.70011571781894    1.24410087749063    1.78437995056545
O          -0.52498566286822    2.50586908650880   -1.74969295968455
H           0.32884027075160    2.82897734393685   -2.04370306274480
H          -0.63840562294586    1.64453786362518   -2.19152292198265
O           1.27332438306146   -3.31858237099249    0.38899074867485
H           1.06914212196101   -2.86897046143090   -0.46028287504130
H           1.06846603902379   -4.24518958367431    0.25160804267257
O          -0.43432011009751   -1.68010651803073    1.56602643993525
H           0.12428372404500   -0.97567228840520    1.92531621374794
H           0.18779339162379   -2.38290057642612    1.25653327446754
N          -1.12073813086259    2.09393059469019    1.02117008448258
H          -0.94889964773996    2.35502390570521    0.04629450082687
H           0.14386084901816    1.26995118232018    1.41652208158982
H          -1.41016814102200    2.92272528320867    1.52510207738979
H          -1.89654199860787    1.44271262225016    1.00775867733672
