    23
        -45.36505054  Gyration_radius:  2.30985897793 Dipole_moment: 5.219
 S           1.37059679713528   -0.39013218786319    0.90109311704603
O           0.23032523150984    0.32909134420778    1.43963847169943
O           2.63987499888570    0.14377993330602    1.26054207345502
O           1.28493428885305   -1.86264232999800    1.28526962091754
O           1.21034016097553   -0.44212739013511   -0.63946548123589
H           1.02553149425934    0.51192982940284   -0.99663331127494
H           0.33945097144689   -2.20237865214407    1.08871438959523
O          -1.01381592356862   -2.72797772237508    0.65699484222054
H          -0.90344475460382   -3.64241601957273    0.38737260806060
O           0.60780286448830    1.91047763989772   -1.31032869964877
H           1.02315042169394    2.40630185539147   -0.56693579169147
H          -0.34129309838731    1.86495601102009   -1.09014395946001
O          -1.74002820850168    1.24626826731910   -0.07798424014668
H          -2.31693939432446    1.80016416426665    0.45071303257574
H          -1.10027004131736    0.84251795101180    0.54889990398542
O           1.55973941668241    2.67319020297935    1.05893906805008
H           2.42858221990276    2.26878815988334    1.16313572112559
H           0.95906377403467    2.04061797672890    1.48168916578842
N          -1.50400379649249   -1.33226522371083   -1.52437029916126
H          -2.07914288357443   -1.61754289720590   -2.30665642636161
H          -1.85278192737209   -0.44113067066523   -1.18242187920790
H          -1.26747484273079   -2.20824751099945   -0.17001974963943
H          -0.56019775903079   -1.17122275076751   -1.85804219670210
