    23
        -45.37155503  Gyration_radius:  2.42833472027 Dipole_moment: 4.206
 S           0.28111623682853   -1.12311097619353   -2.12616192829114
O           1.46829020516621   -1.22407786538723   -1.28147778649365
O           0.52827227374672   -1.18072432301007   -3.53029603495805
O          -0.59262828312511   -2.44201935335831   -1.78653281854139
O          -0.55576283989563   -0.01033152611853   -1.67361773976778
H          -0.90412416720262   -0.69661636689417   -0.28510496641223
H          -0.44075939069171   -2.95146402067366   -2.57553239318193
O          -1.79349082606330    1.40577866139052    1.53750232189446
H          -2.69450205954728    1.70060941096549    1.39861313492597
O          -0.01702530931050    2.27966509813301   -0.40131848315381
H          -0.28766886228376    1.61210213120197   -1.06185232834713
H          -0.65681357295364    2.17841874465856    0.32732928839594
O          -1.13720602668361   -1.10033786876797    0.58990827394212
H          -1.74775538580599    0.48972677072239    1.21232445772237
H          -1.28149715645717   -2.02684868457984    0.38683945471088
O           0.51795387365989   -0.15652816435955    2.53174002624538
H          -0.05180346737769    0.57480720700275    2.79105091371611
H          -0.03321246600089   -0.70339889158892    1.93777665190958
N           1.91047700224754    0.68723963028925    0.41252965269662
H           1.78939738058667   -0.11520760888973   -0.28730062158167
H           1.26250291114650    1.46707633385938    0.08600130575760
H           1.55698311415994    0.35407756546398    1.34349183914018
H           2.87925679588015    0.98116408616308    0.45408778966281
