    23
        -45.36772461  Gyration_radius:  2.43896859496 Dipole_moment: 4.620
 S           1.74852236799283    1.44778750018696   -0.04625305531996
O           2.31254813268730    0.56497142461049    0.96843044490696
O           2.08989266635976    2.82619487987944    0.06827182004591
O           2.40147746705420    0.95443465298335   -1.44164184136684
O           0.31814402393291    1.16473431069427   -0.21679466638225
H           0.61673485572842   -0.34871986966731   -0.86077491293142
H           2.96728343722787    1.69345277289606   -1.63746062069420
O           0.73747301310803   -1.27851208116807   -1.15003332629341
H           1.56567458774039   -1.27605980503029   -1.63385780801556
O          -1.67588373805935    0.28407933535013   -1.89324091397185
H          -1.06552809693005    0.84507551681544   -1.38746670587340
H          -1.15901833946765   -0.49236462964709   -2.13303009454268
O          -3.23472635344926   -0.55638014202832    0.11783864273632
H          -4.06591792451329   -0.08015480929305    0.10565398163738
H          -2.74759075748900   -0.28150481278656   -0.69353684502517
O          -1.31438272867949    0.27829063756334    1.77928467216177
H          -2.09270460338873   -0.06389006479875    1.28175282608446
H          -0.84598329530005    0.85904686019384    1.15370042340693
N           0.68923007529912   -1.35029595352623    1.54792025026417
H           0.59343228935338   -1.77049723985925    0.60916749937442
H           0.93407928930413   -2.02779572370185    2.26051266855530
H           1.43959404361742   -0.58962384231586    1.42720337529896
H          -0.21235040218659   -0.80226895731504    1.77435418593285
