    23
        -45.35976657  Gyration_radius:  2.3539610159 Dipole_moment: 2.400
 S           0.05708356029546   -0.03590930807702    1.52685161197120
O           0.92275176540800   -0.91136177473627    0.76835250080691
O           0.71641614075375    0.72649441990947    2.53714769686758
O          -0.63677660487874    0.94160121301625    0.52559769965659
O          -1.11014938016376   -0.81361963300194    2.10036561838019
H          -1.56902820450025   -1.37545014535882    1.34723042219042
H          -0.01476485905370    1.73639447406419    0.46334936612918
O          -2.29156353064922   -2.05171394432873    0.27643932878196
H          -3.22775507514242   -2.02105476373480    0.48646444677437
O           0.90945201205253   -0.85882134245405   -1.97698520402582
H           1.63761995396107   -0.23918607038580   -2.06715866735188
H           0.88686773044784   -1.09447532112616   -1.03582348037088
O           1.21407951283578    2.68227654421640    0.68568660699666
H           1.26020329445384    2.50862333900365    1.63559705123702
H           1.93773450069326    2.15034922854756    0.29097250365642
O           2.89330055925768    0.70228157669159   -0.02026909550513
H           2.25315245871053    0.02316141151307    0.27607238897604
H           3.68497208312682    0.56975497409508    0.50442326920711
N          -1.93757137505310   -0.47547371228191   -1.76585510909101
H          -1.91324511764836    0.44421900626853   -1.34087031260972
H          -0.98517758578840   -0.68188114984769   -2.06854133466608
H          -2.15720001822218   -1.48376874257736   -0.56374889287177
H          -2.53040184089370   -0.44244028942230   -2.58529841512901
