    23
        -45.35325790  Gyration_radius:  2.57906965234 Dipole_moment: 3.018
 S           2.21104676903686    0.01082283862722    1.44024602051779
O           1.64780490703979    0.38903203032716    2.70054267689127
O           1.88714287830748   -1.27778769563917    0.92334329429669
O           1.92668870648975    1.10198749754522    0.41116037104187
O           3.78467914637501    0.08711100570305    1.59727165036782
H           3.95085846398399    0.81022057394308    2.19793404269654
H           1.44643561898324    0.73881929258915   -0.47193864228810
O          -0.50225929167389   -1.74700595326521   -0.28130209651272
H           0.32217438877278   -2.09489277183488    0.08240307948170
O          -1.71138915314638    1.53634872257211   -1.36902151317362
H          -2.15388175272170    0.67491830128144   -1.53445438183605
H          -2.08410770868595    2.16136639636054   -1.99223524154806
O           0.66317344964672    0.28021764588679   -1.55358102088789
H          -0.10790572788020    0.88886103945759   -1.54463564846530
H           0.30353643634110   -0.57330488432172   -1.20135375331379
O          -2.52222496229144   -0.97282913439829   -1.97248247580310
H          -1.94006227382204   -1.43838142332051   -1.34883636929357
H          -2.27706788057929   -1.28447175545858   -2.84569205936614
N          -0.99815291343855    0.22839741602711    1.42992223749685
H          -0.14326089439146    0.33889619527223    1.96802837337127
H          -1.13325131738847    1.06392110494728    0.87163412991274
H          -0.80015566863360   -1.09082927784632    0.41067692378369
H          -1.76982122031431    0.16858284552278    2.08237039267038
