    23
        -45.37539247  Gyration_radius:  2.30865776728 Dipole_moment: 5.181
 S           0.09130699639830    1.92822990857486    0.22537346932627
O          -0.08281559715872    2.77420875686410    1.36340143395049
O           1.42330510770580    1.36244278740030    0.07172765055744
O          -0.93329901209692    0.89063816219945    0.06754865825136
O          -0.12148501701229    2.85768518439689   -1.07324067836215
H          -0.14122082255818    3.74415353711527   -0.72466096505451
H          -0.74873558321588    0.30734382186420   -1.46554281624273
O          -0.50090284594528   -0.13960941492584   -2.30833788012372
H          -0.32527483162592    0.57171787862170   -2.92613447190690
O           0.24600028132355   -2.33628694296827    1.23686690706649
H          -0.66890458509525   -2.29795538358155    0.88507972220928
H           0.27675368324389   -1.63691778246576    1.91179040765000
O          -2.02496567766942   -1.63728359450421   -0.03149324422049
H          -1.84973201321480   -0.70107209946755    0.14930941288112
H          -2.01828449695781   -1.71680140550044   -0.98854139545260
O           0.10674393500410    0.10504786884745    2.46128550210627
H           0.45356197261796    0.87015291118161    2.92423489978774
H          -0.36681245501961    0.46808676885957    1.70054633332296
N           1.46004051659122   -1.10698386245420   -0.71175104427016
H           0.79086294116742   -1.01765737033401   -1.50028758409939
H           1.01977555482553   -1.69724254679949    0.08143455066913
H           2.35406262052650   -1.48016887881386   -1.00970931476135
H           1.56001931815238   -0.11172831410725   -0.33889955328763
