    23
        -45.36868872  Gyration_radius:  2.46384080931 Dipole_moment: 2.445
 S           1.64396432712099   -0.76300110548683   -1.37235760998413
O           2.02647958314223    0.47393452969144   -0.69366505276841
O           1.78189555928393   -1.92736200818590   -0.54481239524928
O           0.29861553593979   -0.64526181478669   -1.94641337759424
O           2.64165660991320   -0.90340152992810   -2.59947150707873
H           2.72433668415807   -0.01630512105452   -2.94071761960143
H          -0.55286346486862   -1.33033529110121   -0.72385715902083
O          -0.88803130349362   -1.69017344937789    0.13425416366013
H          -0.56322899078311   -2.59433454261018    0.14877883742978
O          -2.32302042511241    0.75618745894768    0.62268255438873
H          -2.12257307569249   -0.18127896886288    0.51585439559501
H          -1.95792734157763    1.18528155209638   -0.18067641691872
O          -0.83359471908816    1.57779895556595    2.62197605650938
H          -1.33355668916588    1.46230052858178    3.43088776698385
H          -1.46814827746573    1.40345770284155    1.87552173194640
O          -1.14144627793192    1.56887284184344   -1.65863900722379
H          -1.69149031857760    1.59561827216149   -2.44338363546734
H          -0.53119676285821    0.81111291472073   -1.78138765860564
N           0.86390738924634   -0.15297741972109    1.53551226832673
H           0.18384713399470   -0.83027585094911    1.10998736999125
H           0.32636544071006    0.59138855200516    2.05451706412665
H           1.52084200136510   -0.64410434966526    2.13327986315674
H           1.39516737173771    0.25285815327797    0.70212935740956
