    23
        -45.37261405  Gyration_radius:  2.40478642108 Dipole_moment: 6.609
 S           0.90306028509767    0.78883156596658   -1.34678240537564
O          -0.21241636249750    0.77459371764718   -2.26963790966503
O           0.96251763068764    1.93703663009809   -0.47679381450499
O           0.88628972323650   -0.46305241540422   -0.53928185290970
O           2.24177694129764    0.74771050710885   -2.15962909227287
H           2.11512028912137   -0.01211988559133   -2.76097712434180
H          -0.78996629163309   -0.32154881793607   -0.31656196557611
O          -1.72329996096528   -0.13437690560484   -0.08373509127639
H          -2.10412196042387    0.17310381046210   -0.91118703465791
O           1.03185222262558   -1.34085513265106   -3.27240865855417
H           1.00352614472912   -1.85702149001631   -2.46136713493249
H           0.34677146107167   -0.65478620896592   -3.16351846968230
O          -0.72382569823858    1.94814762989583    1.52716445839078
H          -0.10581117326681    2.20606822046989    0.80545030234084
H          -1.41780858632114    1.44830932662048    1.06980162354247
O          -1.58094993493815   -1.65192627265657    2.20467481048140
H          -2.31195740281734   -1.42733293168660    2.78304679462327
H          -1.79963126549568   -1.28560943487194    1.32953527214766
N           0.68358665029494   -0.18641530440609    2.04358181492328
H           0.18592673019027    0.76402600667710    2.03410907081745
H           0.93820732148496   -0.34602016384625    1.02034568680133
H           1.49985801385845   -0.20577599059379    2.64334146160612
H          -0.02870476707670   -0.90098648068452    2.30082924807892
