    23
        -45.37303697  Gyration_radius:  2.39441616994 Dipole_moment: 5.691
 S          -1.51165302389698   -0.83518618648466    1.20758356261544
O          -0.62048563057414   -1.67173778739340    1.97005043019910
O          -1.02430729833016    0.54374239955196    1.05933117193170
O          -1.88183524906175   -1.36666215491282   -0.09157484973087
O          -2.84309733121211   -0.73614650306950    2.06571145096669
H          -2.56325547162204   -1.14249490576235    2.87960604710815
H          -0.73845352286588   -1.62648986177570   -1.16238785347289
O           0.00327586379971   -1.58522542140117   -1.82469404437144
H          -0.15144648367958   -2.29232485334052   -2.45257102069367
O           1.73079580875938    2.48638782937053   -0.93135085545781
H           1.69728273286884    3.40984307263970   -0.67803145288258
H           1.85262044583039    1.97359128787705   -0.07552390900302
O           1.65761659578258    1.10769423322335    1.26066554363282
H           0.70183058891554    1.03603454249956    1.42012843091159
H           1.92178067989814    0.18863532569949    1.04529654335543
O           1.64402462229858   -1.47028277665833    0.51679568732965
H           1.30038116972389   -1.60572737091715   -0.37499536901036
H           0.90964762108313   -1.67500701593389    1.12409193712817
N          -0.42651503779346    1.06424876689738   -1.41798238113066
H           0.42630158485169    1.69862009173319   -1.35546971428407
H          -0.75648837981745    0.88378900339591   -0.41475146508103
H          -1.17265433030201    1.47577083561101   -1.96768429740600
H          -0.15536592467553    0.13892742915570   -1.80224361266768
