    23
        -45.35225011  Gyration_radius:  2.40938015939 Dipole_moment: 3.886
 S           1.75828368303233    0.87542494394891    0.76152119379383
O           2.31258862847066    0.04527951046866   -0.26905946132637
O           2.63363418047223    1.60435070455589    1.60044561267031
O           0.73109399514157    1.84652648481221    0.09141523928328
O           0.83474116826753    0.00797885963142    1.66986113428945
H           0.14256425831162   -0.47375867588657    1.10678277727967
H           0.55447791818045    1.52800798096978   -0.84526326088198
O           0.14825215732654    1.04095986745748   -2.29616973562654
H           0.83836377213867    1.34306064514065   -2.88900593804799
O          -1.42323955421560   -0.84629315898366    3.23664972840073
H          -1.26685637109734   -1.45627388763927    3.95943038138379
H          -0.60616234987593   -0.34796929907028    3.11100696055641
O          -1.15950376107064   -1.09472595489628    0.50455709056643
H          -1.59260713517687   -1.22115820950842    1.36449514595674
H          -1.60976742703743   -0.32121705935892    0.09048134826048
O          -2.04359263772858    1.19735867369234   -0.55924318952954
H          -1.59102754370255    1.21892642118339   -1.41280662444090
H          -1.59413303946653    1.84812896008121   -0.01131080030361
N           0.57765097677676   -1.48994218903861   -1.87856739212227
H           1.41190576423016   -1.27685281237536   -1.33322904416646
H           0.79942438199290   -2.21466275621822   -2.54784373160985
H          -0.12152461183377   -1.84473078443886   -1.23614132740571
H           0.26543352682221    0.03158174546249   -2.21800607695614
