    23
        -45.37575840  Gyration_radius:  2.45926572592 Dipole_moment: 5.521
 S           1.22508106199801   -0.54872162311174   -0.82379246057434
O          -0.16885872593618   -0.87423150404730   -1.16159365887526
O           2.16586486785244   -1.51749633094474   -1.30231851173487
O           1.49469209361450    0.83502519836130   -1.57568818181320
O           1.34598630322656   -0.20048625074287    0.58617821587952
H           0.96607823764008    1.41402861263060    0.77035634459482
H           1.47394107069213    0.55010925051369   -2.50981744148874
O           0.52648923594023    2.28844110949690    0.66148296173032
H           0.94075171754388    2.66292709073748   -0.12031413252292
O          -2.34949295081469   -0.51752091389329    2.28142558682154
H          -2.79502841641542   -1.35097447307294    2.11907482483486
H          -1.42921334471655   -0.76046550404330    2.55484083421328
O           1.16238296256450   -0.77763853666632   -3.64321919537136
H           1.74887341384290   -1.30438511639417   -3.07205901723125
H           0.27564048040289   -1.03540099862090   -3.37068610754797
O           0.15901817551739   -1.19959942250329    2.73093330026034
H           0.66552268556183   -0.81914509059374    3.45088181186443
H           0.62170897252184   -0.92670211477003    1.90942290486366
N          -1.63286433656267    0.83331944409923    0.09719770412924
H          -2.38415811465288    1.23412723648847   -0.45340261949093
H          -0.91897478947289    1.55984693219791    0.36726916012619
H          -2.00420722094093    0.36475037788414    0.96718844889645
H          -1.08923336941738    0.09019262701393   -0.46336077157640
