    23
        -45.38321627  Gyration_radius:  2.25833922654 Dipole_moment: 3.079
 S           0.92441806186484   -1.09584409931216   -1.25313224286353
O          -0.09984459762021   -1.79778392114541   -0.48427388428947
O           1.80994995263501   -0.33881926738970   -0.37125107195837
O           1.82616390172131   -2.21007500212364   -1.92234655605099
O           0.38084800720711   -0.30722922644090   -2.32922780914268
H          -2.08049264150260    0.47711581075672   -0.56142950232073
H           2.24618840257133   -2.62425670007514   -1.17581515164658
O          -2.17735290720443   -0.22707169327687    0.10202125624149
H          -1.54835609862822   -0.92568999111303   -0.17800614477565
O           0.97956203358187   -1.42156924375043    1.88391852103155
H           0.42238429071496   -1.87095703316980    1.21999694622527
H           1.61390058941749   -0.95353024744014    1.30972921050947
O          -1.17616919314653    1.64037190280345   -1.65550063170711
H          -1.48407221763667    2.10205090447430   -2.43690748388609
H          -0.58994428861628    0.90928080115553   -1.98284569728641
O           0.74329882855896    2.02110206122913    0.28060428927973
H           0.09099515620131    2.14608765183101   -0.42950630317216
H           1.28527813116003    1.25512339462365   -0.00530355821097
N          -0.64753328876912    0.65940481694916    2.03755982506760
H          -1.00754930203636    1.05764862041550    2.89643689434745
H          -0.07711994893864    1.35625433801804    1.46472119609985
H          -0.01515605243571   -0.17240763748660    2.20826688501368
H          -1.41939678907031    0.32079376045166    1.38229102350866
