    23
        -45.37800519  Gyration_radius:  2.25788983439 Dipole_moment: 6.309
 S           0.39714798475034    0.92780751853292   -1.18988422977764
O          -0.09484390563842    1.53169533613763    0.05159660866136
O           1.05200148830660    1.86306547108591   -2.05861898557620
O           1.50046409550014   -0.13109157264730   -0.69348006239830
O          -0.62297485218527    0.09686619930875   -1.81329205705904
H          -2.10654838516202    0.29154505630331   -0.93190690262218
H           2.20918835180691    0.47865566555505   -0.41040923857918
O          -2.58191144235441    0.45999629977490   -0.09160456960558
H          -2.06721857941399    1.18888440596406    0.28438003952658
O          -0.18528992254625   -2.36979097365967   -1.06144380367281
H           0.77122899812203   -2.35930380887789   -0.97099073322319
H          -0.39047740706175   -1.51131802951475   -1.50388701177481
O           2.73934343156321    2.10904934916735   -0.06410723977588
H           2.19463768793286    2.55320878635782    0.59149003753477
H           2.30488933885978    2.29535002981510   -0.92084874660816
O           0.46587994295839   -0.01794592779168    2.06180939446255
H           1.36716367271034   -0.29466597132188    1.88256494017495
H           0.25354226520704    0.65482413108668    1.36279177605290
N          -1.45591159940573   -1.58226430454044    1.11966985070560
H          -1.98818831224694   -2.22740800777209    1.69223909425156
H          -0.98499430605582   -2.06318101568631    0.29947087908172
H          -2.07091379426721   -0.81430881274249    0.69869235431767
H          -0.70621473137577   -1.07966982453596    1.66576861589763
