    23
        -45.37704155  Gyration_radius:  2.43395056164 Dipole_moment: 5.275
 S          -0.04078611468012    0.79320919881052    0.35502191421116
O           0.27077338964801    0.27419244231815   -0.99081075405015
O          -0.10083808581220    2.22684579539481    0.39795032251939
O          -1.46623640038733    0.21355941343698    0.69461261230727
O           0.84162485078099    0.19636028501769    1.35106745652229
H           0.12645195972193   -1.29593804507528    1.70160925884157
H          -1.98644228727734    0.44944057992548   -0.12547469034891
O          -0.27561330166552   -2.18392766225216    1.56808123275366
H          -1.21700085658849   -2.00619637778402    1.49470622396837
O          -2.29886670374089    0.89660073551441   -1.63276147917562
H          -1.38763058237543    0.69499882537924   -1.89082914402520
H          -2.33709790456463    1.87692956682725   -1.59272953370019
O          -1.86898756668664    3.48347714889292   -1.11437270648534
H          -1.12161499110323    3.13417532583669   -0.58066625789599
H          -2.37920466558469    4.03614056970744   -0.52016528036211
O           3.16521653544125   -0.98919467266179    0.89482237513053
H           2.42029926364443   -0.38246048689907    1.10315199563137
H           3.48261170318186   -1.31262498480237    1.74005316531988
N           1.24218105849889   -2.06158388757689   -0.59850636770949
H           1.31827351358968   -2.70642446489803   -1.37678097777343
H           0.59855113358372   -2.39260581460536    0.16375231543872
H           2.16484797260944   -1.85046890596493   -0.15008630936709
H           0.84948807976170   -1.09450459452848   -0.89164537174086
