    23
        -45.37126170  Gyration_radius:  2.37039158493 Dipole_moment: 7.038
 S           1.24140927287788    0.99654978104412   -0.75271579583079
O           1.57969227750841    0.26064319030280    0.47512197367799
O           1.39692171278491    2.41242036402725   -0.63062756748562
O           2.21284679071265    0.47380304494894   -1.86032758751352
O          -0.11766623875079    0.60271258378322   -1.18991477091521
H          -0.71082032336642   -0.79621558444118   -1.06829642126638
H           2.07428301295895   -0.49541075197815   -1.85794251298109
O          -1.05304035289467   -1.73546441143777   -0.92800070568268
H          -1.89220666125072   -1.77723160369433   -1.38934275185761
O           1.50519117659241   -2.11793207165971   -1.94322454136445
H           1.42228196609507   -2.32494649979984   -2.87667494054210
H           0.60859772502415   -2.14906422735609   -1.56549672802593
O          -1.62616570210590    1.09374733610740    2.51323469361650
H          -1.21433405550663    1.58764970268216    3.22420293889801
H          -1.53903132715634    1.66822638750977    1.70571184232401
O          -1.13935883270971    2.49962704727782    0.34431723030674
H          -1.03801616186127    1.81105092570257   -0.33786345984461
H          -0.28646531833356    2.95343594508663    0.28806216526157
N          -0.30144673754935   -1.02091196005759    1.59393390953765
H          -0.78676711152731   -1.48085462923038    0.80597913891235
H           0.55210450750462   -0.49410589520224    1.14177033538692
H          -0.90319626140173   -0.27123489803911    2.02824141384281
H           0.01518664226599   -1.69649378527765    2.27985210149597
