    23
        -45.36873370  Gyration_radius:  2.38832171945 Dipole_moment: 8.169
 S          -2.27721922460861   -0.01272981046066    0.73204336958168
O          -1.66452124475300   -1.06633341995266   -0.07406276137716
O          -3.69560922587987   -0.09378158796804    0.85276611326892
O          -1.68543320352057   -0.21553040014795    2.21896051632488
O          -1.74933367356178    1.29920839716514    0.34337213431491
H          -0.29474220459078    1.28007437681482    0.91874017594658
H          -2.36414618153750   -0.73942010693735    2.63106119002146
O           0.66511652425320    1.27034629669874    1.19870754425810
H           0.70114760356359    1.78991088016586    2.00249643882995
O           0.70998177027495   -1.55179531495450    0.95589007690014
H           0.80873116174405   -0.67289767006262    1.34827342910767
H          -0.19568986841728   -1.53780277895745    0.57703332188351
O          -1.01446956502280    0.52390130843918   -2.05712154056678
H          -1.23826267069590   -0.33716411321933   -1.65025012074656
H          -1.41014799072363    1.13655502952801   -1.40775257120630
O           2.43285459108192   -1.59481468410261   -1.00083633949051
H           1.76128210882008   -1.73386574762890   -0.27466051845852
H           3.27315428370007   -1.88711097593660   -0.64629669978234
N           1.47276143521054    0.84601325166766   -1.34512174396568
H           1.99123126579824    1.52839088066107   -1.88644595281085
H           1.95862919490711   -0.09082326277900   -1.32497679106627
H           1.33677232492721    1.15797223007192   -0.36299709047036
H           0.47791278897264    0.70169721197772   -1.74882218042876
