    23
        -45.37494179  Gyration_radius:  2.32440389483 Dipole_moment: 5.878
 S           1.43561118562617    0.38428500343637   -0.19370528432424
O           0.90099441150017    0.46756906589127    1.16828064627931
O           1.86052649493576    1.65070745203935   -0.72270692840347
O           2.67572693341802   -0.55670731651078   -0.13897866115153
O           0.44393956741252   -0.27496063459783   -1.06802011353758
H          -0.36435401000223   -1.47176886536501   -0.49877831016595
H           2.35562126771940   -1.34805137922748    0.34714935729328
O          -0.88470653050419   -2.21662652952014   -0.06992381635845
H          -1.27142930053701   -2.71171993817087   -0.79407830563185
O           1.61639312015092   -2.75917096911496    0.91040060166198
H           0.66821188141748   -2.66860769642248    0.69686240884978
H           1.94978048260511   -3.50317302010638    0.40420546693208
O          -1.72808491435863    1.28674742949210   -1.16012274454999
H          -0.96522228804410    0.72543166969048   -1.40531583833332
H          -1.32372872544425    2.16575146697265   -0.98784216164210
O          -0.15581795682173    3.33693153641972   -0.52431209197623
H           0.64249818003306    2.75998266967982   -0.52294511250855
H           0.06190956616001    4.07437542433619   -1.09737180126169
N          -1.62336710605443    0.12954967431226    1.16263440919435
H          -1.71290836307942   -0.87795176727314    0.98308960202081
H          -2.15692648223242    0.43290837267446    1.96861602754007
H          -0.55659961447089    0.31217403150362    1.28303173918840
H          -1.86806780944616    0.66232430983560    0.25983091090265
