    23
        -45.37714061  Gyration_radius:  2.34360863286 Dipole_moment: 0.793
 S          -0.36603525171114    1.62394179309322    0.85904939104987
O          -1.20572829055966    1.14877942640393   -0.24664233592114
O           0.43197856176982    2.76508592811218    0.47119986788687
O          -1.36679482423382    2.11733478125481    1.98544006562003
O           0.40199746260552    0.54463195968840    1.44168698851717
H           0.08811302016261   -1.07184404793251    1.46984723862065
H          -1.66488846406267    2.96071948022286    1.65828391266243
O          -0.06908099539303   -2.04279846313984    1.45724706670359
H           0.21056333762587   -2.36507686974150    2.31467936335028
O          -2.22632855344360   -1.38288002237288   -0.33917491502042
H          -2.02087360564872   -0.43133599438637   -0.31920113542253
H          -1.93426586601034   -1.72425257054920    0.51450537957081
O           0.08225682357906   -2.33695460923950   -1.27060102465174
H          -0.88161429213749   -2.15274811215873   -1.18741273413270
H           0.34331684456369   -2.48508327807586   -0.34744431399557
O           2.49414396655889    1.28787114107618   -0.22076322357876
H           1.88002780827395    2.02218599237175    0.00197294280317
H           2.49942861005734    0.74762740987018    0.57590915753113
N           0.67365799983003    0.15572868303426   -1.79133654694359
H           0.55104738852474   -0.90413200136692   -1.65038615716528
H           0.69895390486310    0.39472865222989   -2.77700379521913
H          -0.14909049150977    0.61011142648963   -1.31139730214290
H           1.52921490629022    0.51835927512128   -1.28845789012297
