    23
        -45.37126173  Gyration_radius:  2.37062692015 Dipole_moment: 7.038
 S           0.99595473090112    1.12279402944283   -0.92190260405668
O           1.59420542458875    0.43957341355185    0.23527304017073
O           1.00905904416503    2.54818626944845   -0.81271595560833
O           1.84295370894023    0.70231166243732   -2.16667312169537
O          -0.36069056090411    0.57611804205001   -1.15391697950366
H          -0.76909656986929   -0.87889785810731   -0.95605941437634
H           1.81353628889387   -0.27628738575478   -2.15315905446638
O          -0.97956947263204   -1.84930992025576   -0.77415006694843
H          -1.86891994347013   -1.98796894467448   -1.10365313830403
O           1.42026784247464   -1.95162394272363   -2.17023582224849
H           1.21771387079063   -2.16858258548282   -3.08278372594000
H           0.60112738166913   -2.08012180845437   -1.66028695401134
O          -1.34311927112239    0.92391623373408    2.73949701515995
H          -0.89033271211118    1.46636265249025    3.38730595300750
H          -1.44109673820248    1.49862718362249    1.93363709907976
O          -1.34395243556323    2.35914654441985    0.53496578646278
H          -1.27248836116150    1.68099251117261   -0.16108124710532
H          -0.56479377153623    2.90385325674963    0.35391734147323
N           0.05825394619708   -1.03547193070974    1.61238490707323
H          -0.48525575436646   -1.55324268225876    0.90213858921008
H           0.76953712979173   -0.41950214552117    1.04183668095591
H          -0.55157696097718   -0.35504162257685    2.13910437367970
H           0.54828318351417   -1.66583096262343    2.23655731800450
