    23
        -45.36512696  Gyration_radius:  2.54799490291 Dipole_moment: 4.379
 S           2.53466055624706    0.19709647961273   -0.46020383839285
O           2.43082741737620    0.22787319745323   -1.89743060457838
O           2.23106276849037    1.48971553508760    0.15379994928318
O           1.75032057529312   -0.87790598818103    0.14520315113465
O           4.04935789861984   -0.12787011358365   -0.09842125618095
H           4.54865930958606    0.46895744298761   -0.64897882905366
H           0.55824096039817   -0.85728267656780   -0.97701466167263
O          -0.16158127176259   -0.58809643464300   -1.59750678776237
H           0.33241818312796   -0.30765333643224   -2.37553672558002
O          -3.03482704765142    1.07213471736986    0.59962388220898
H          -3.84596590143543    1.07526921381325    1.10842632230071
H          -2.83542554809622    0.14154972921661    0.41111431533481
O          -0.26937077288771   -0.82368229318621    1.93032060841910
H           0.57871593183724   -1.01299988030841    1.48409248542958
H          -0.93811448499866   -1.35326315511354    1.47440104462527
O          -2.18641346045494   -1.54799452977931   -0.05536900954907
H          -2.65150328436426   -2.30918616415240   -0.40510608401799
H          -1.52924937430691   -1.29120044460513   -0.72751746927975
N          -0.32696132381150    1.32252188615552    0.38869360689038
H          -0.98507901408446    2.08391969981017    0.53255980151577
H          -0.53428634532995    0.82927313817865   -0.49658621080062
H           0.70617732595224    1.59069924238479    0.35150688881393
H          -0.42166309774073    0.59812476448639    1.15992942091916
