    23
        -45.38060809  Gyration_radius:  2.2566245121 Dipole_moment: 4.378
 S           1.60298957329441    0.36879372135610    0.94744539175902
O           1.00321299585854    1.38291949230428    0.07755405668430
O           2.45081691189937   -0.55679780982682    0.23616061657530
O           2.56247502910496    1.16583627837063    1.92854730552480
O           0.59226965293788   -0.27337414173793    1.77174769283450
H          -0.86170768018585    0.97047389718308    2.03814617098173
H           3.32980112888456    0.60410842373848    1.92510482675238
O          -1.22145051518250    1.64645118530750    1.44226492514934
H          -0.42839624465706    1.87733089363337    0.91702175090449
O          -0.91700443137852   -2.03601113895289    0.47890408446964
H          -0.30062435579819   -2.22191438278827   -0.27118153989921
H          -0.36058342381375   -1.54293529829076    1.11842547369489
O          -0.16122987356680    0.69650855461629   -2.13584146836609
H           0.34928221080602    0.96856518182197   -1.32841030418329
H           0.05574418381633    1.33798931065580   -2.81381084271568
O           0.86045724743679   -1.87165095372233   -1.46509850667686
H           1.56841629278853   -1.51181414394727   -0.89446919841026
H           0.54858725353345   -1.12108119404292   -1.98703696507161
N          -2.17202041459685    0.02945125522839   -0.41451814689050
H          -1.62349236225180    0.29510493612914   -1.25101406572653
H          -3.16297357476096   -0.03500905630564   -0.61563353228558
H          -1.75643049027005   -0.91714397281877   -0.05057166767487
H          -1.95813911390010    0.74419896208569    0.34626395255520
