    23
        -45.38129265  Gyration_radius:  2.28549593663 Dipole_moment: 2.179
 S           0.87369245723344   -1.37852767535050    0.78661587899870
O           1.85498099376574   -0.41284155261135    1.23273844148359
O          -0.43670168048705   -1.13501916334355    1.38327095500701
O           0.78626281424280   -1.51107426204984   -0.65671907843950
O           1.36095847906903   -2.78850673469145    1.31869003427154
H           1.68328220442716   -2.58954465019794    2.19213808223490
H           2.23748366129476    0.03718285351106   -1.63898614932652
O           2.31598431321236    0.81613886113922   -1.08210687917628
H           2.27618021085011    0.46044972864651   -0.17186168207490
O          -0.01787160512522    2.11944947383026   -1.12978375902165
H           0.91680222776423    1.82360022083590   -1.22064108545576
H          -0.17591637110636    2.11620927300774   -0.16180581597927
O          -2.81865094961257   -0.37029200528761    0.48618814954766
H          -2.92498892337486    0.46077361692047    0.95621247244597
H          -2.06350760693957   -0.81679457377566    0.92179466119786
O          -0.22001055384159    1.51820235865240    1.49062971270699
H           0.67557247505899    1.66066352391900    1.80800131337438
H          -0.33256368415997    0.54769162069279    1.52167715693984
N          -1.21816125821924   -0.11900451444324   -1.63730620361714
H          -1.99914311306063   -0.20775419869607   -0.94004728931451
H          -1.52793951789996   -0.32629273877042   -2.57985849581623
H          -0.79206371273905    0.87397431796737   -1.54947883955607
H          -0.45368084029890   -0.77868377986360   -1.32936155040012
