    23
        -45.34979698  Gyration_radius:  2.51961476629 Dipole_moment: 6.352
 S           1.93890038790282    0.03743754457664   -1.77846682758891
O           1.06642007778329    0.60944167581895   -2.76751470172109
O           3.33021438492161    0.24953823307588   -1.88258468546518
O           1.43854785846195    0.55281199496583   -0.37476774745147
O           1.66344619218076   -1.48863192143386   -1.68328899499231
H           0.68714487379576   -1.62705143133279   -1.52092526854548
H           0.46930022689208    0.73515769944032   -0.50044684445254
O          -0.81657613989228   -1.75459199245035   -0.97052915430184
H          -1.15918952545545   -2.63845955265880   -1.11238037405195
O          -1.00272184188252    0.96661235099335   -1.21722983872941
H          -1.34408836035853    0.06064415228864   -1.17714246675664
H          -0.48832556577293    1.01588881269287   -2.04776404335850
O          -1.38934691718800    0.68981674286503    2.75506590874885
H          -2.22732948351344    0.97075923141243    3.12409733859455
H          -1.07016312079119    1.43518861284982    2.20796862234908
O          -0.52251942039866    2.59852014585782    1.01061508708324
H          -0.90245759786773    2.25884355771665    0.18799501877916
H           0.43104758558002    2.57172372763727    0.90152578950351
N           0.00085565238381   -1.46311672775986    1.46314192385325
H          -0.56123509407919   -1.68571193879101    0.02694688477039
H           0.90532047631802   -1.02436922662984    1.32828621434186
H          -0.57902925681295   -0.79582903795459    1.97374706797207
H           0.13178461789475   -2.27462265321719    2.05365110140573
