    23
        -45.36560964  Gyration_radius:  2.34863011094 Dipole_moment: 8.867
 S          -1.88786050086545   -0.27124384196265   -0.16785593130330
O          -2.74029923116799   -1.13472238371591    0.60547555331449
O          -2.47185545914130    0.48824580515461   -1.22791306571031
O          -1.29832804133465    0.82549787603703    0.88581135402631
O          -0.65343754490466   -0.96997142844726   -0.59851379833542
H           0.38525120761927   -1.50629256405538    0.40605443775781
H          -1.29177854338574    0.29409325882739    1.72428040318379
O           1.12633483505968   -1.66802709534714    1.06688418399313
H           1.58146230851830   -2.45506641545214    0.76464521338035
O          -1.16343805009464   -1.02704719284500    2.68554636909247
H          -1.88604978607570   -1.35149988561554    2.10735392659933
H          -0.36316262799903   -1.49664784393037    2.41538564371048
O          -0.22185105098813    0.50098989321237   -2.72776536313186
H          -1.08505782933891    0.93192072500878   -2.67816229163862
H          -0.31186855130237   -0.19515671327616   -2.04317491865830
O           1.91989060844447    1.63531904608537   -1.82670615886034
H           2.62763466350743    1.23411518336529   -2.33366948534118
H           1.06990721338832    1.30457059176985   -2.24662848767400
N           1.35666835035686    0.98221053414939    0.64941470435514
H           0.30656368176960    1.07500728070069    0.68038065812345
H           1.67455686135310    1.24195856949093   -0.33858157457714
H           1.78338367325780    1.58693851126313    1.34414944403291
H           1.54333379332195   -0.02519192042066    0.85358917366287
