    23
        -45.35368412  Gyration_radius:  2.35761138779 Dipole_moment: 5.165
 S           0.58011587341099   -1.92418786089236   -0.89342453543029
O           1.14005379950185   -1.39758879634340    0.32177345846687
O           0.73254713688787   -3.30489563285211   -1.15652320549243
O          -0.94012629458761   -1.54304332998254   -0.90416050228398
O           1.12033160583791   -1.11957970491077   -2.10594446951925
H           0.97239618874509   -0.15105934782811   -1.94746393291988
H          -1.16462007178403   -1.01273982795821   -0.08249086480672
O          -1.72240851349889   -0.10869554326779    1.09888665557208
H          -2.34178563145064   -0.62243306122886    1.61962480738030
O           2.08899961319725    1.16803629735597    0.59602476874162
H           1.67734255516968    1.54187036147500   -0.19061516928888
H           1.96898019373018    0.20849884558028    0.50842251918901
O          -2.02717667648315    1.12694544684469   -1.34291457197722
H          -2.20729697670275    0.28145205681748   -1.76521665542072
H          -2.05571089903183    0.94731412051259   -0.38869031383155
O           0.55395818187355    1.41660565128213   -1.79588785890750
H           0.68769145752601    1.89568659910528   -2.61601727054522
H          -0.42414773557484    1.40910208236839   -1.62400263367245
N           0.31317353450556    0.26946529135689    2.63816653583680
H          -0.91816411369424    0.08695793422796    1.71553176804068
H           0.92178552664966    0.91144940950612    2.12759908143795
H           0.27887186229325    0.55745054720910    3.60769617452558
H           0.76518936353842   -0.63661153826595    2.57962619487710
