    23
        -45.37583662  Gyration_radius:  2.28650199469 Dipole_moment: 1.603
 S           1.21743845504024   -0.76496200354049   -0.79148053516615
O           0.13632353994298   -1.67913921644153   -1.10266896871379
O           1.01167519590075    0.55903612937972   -1.36721040063558
O           1.48815938531441   -0.71665117355642    0.63231901817239
O           2.52186383092875   -1.32423989313928   -1.49397689489636
H           2.57955446974590   -2.21701116460348   -1.16858084347188
H           0.56440258432208    0.36825740598916    1.52811828987633
O          -0.00750611527732    1.11787446728470    1.80640031933576
H           0.53333675824251    1.89513015891781    1.57671952598155
O          -1.09040434296951   -1.90991358014615    1.37294473387957
H          -0.46137979544329   -1.92850901501989    0.63435053436423
H          -0.64782973574290   -1.44804077416771    2.08770007281609
O           1.66789573307856    2.59708555733642    0.27266344813211
H           2.61238274538075    2.60992574175689    0.43297388668087
H           1.51848992356829    1.90321286626751   -0.39966016638181
O          -2.54733752945553   -1.23882006972185   -0.81378718636309
H          -1.74244413364844   -1.57702522407127   -1.24264456763305
H          -2.49655686439312   -1.61822015024853    0.07918617027280
N          -1.39946524722154    1.09389803610146   -0.41488195699067
H          -0.53227763154071    0.97555062630416   -0.99133649466456
H          -1.03195048101120    1.13518220951002    0.58977069121578
H          -1.89368077967361    1.94441821245624   -0.66386437586155
H          -2.00068994508146    0.22296085333899   -0.56305429994371
