    23
        -45.37163374  Gyration_radius:  2.26864036514 Dipole_moment: 4.948
 S          -1.91746350748472    0.39256234589374   -0.02332558336301
O          -2.83959705862553   -0.60979830958508    0.45443938398308
O          -2.47016474895089    1.58215650100850   -0.59481790049592
O          -1.15095023934157    0.89435382914198    1.34099400719522
O          -0.83036006000804   -0.17959398717254   -0.81249771937458
H           0.41814047630940   -0.74308488966028   -1.95226422869709
H          -1.88674971972652    1.16964571267095    1.87931248679095
O           1.36576169962753   -0.83605556576704   -2.15569179956246
H           1.65261807608668    0.05337261614582   -2.38378565809922
O           0.42145554137468    2.06997544420769   -1.26705347919066
H          -0.11700813049929    1.25690183793070   -1.14926597256521
H          -0.22833002495269    2.77502729665123   -1.30775856051050
O          -0.87046102772423   -2.18560207857573    1.13880825814075
H          -1.06674595445446   -2.97652748529242    0.63151990338212
H          -1.61021941934730   -1.56459443596589    0.92944458004525
O           1.52230312499554    1.41407030315118    1.09616469636864
H           1.34533922037732    1.79875480035532    0.21018627905634
H           0.64885327707398    1.40325117523758    1.51333226717868
N           1.54291617518688   -1.16218713416897    0.50200875341266
H           2.26425814607436   -1.73244519217489    0.93017466641862
H           1.61228171140203   -0.14383071164119    0.81329445178242
H           1.61340077105396   -1.15615564950921   -0.54745872785163
H           0.58072166153221   -1.52019641290501    0.75423991594145
