    23
        -45.37892899  Gyration_radius:  2.30149779731 Dipole_moment: 3.014
 S           0.99085811141562   -0.06828716175850   -1.12070979311056
O           1.85549625737751   -0.58201152108868   -0.06619165790327
O           0.17552416671348   -1.08530430716699   -1.73212265256946
O           0.15289762414006    1.02999443559692   -0.58369602593037
O           1.89042246408078    0.55631416881892   -2.23051639591794
H           2.30410751165143    1.32042215196834   -1.78520675453716
H          -1.47155364252596    0.46300622604580   -0.65190670337110
O          -2.38600251213183    0.13646533914904   -0.52157705714491
H          -2.76923000015182    0.09416173830031   -1.39917965757299
O          -1.42049184854629   -2.36744403356487   -0.04295796429180
H          -0.81199598954359   -2.16431045334530   -0.78394025543859
H          -2.05099709983245   -1.62384228189724   -0.08022844377178
O          -0.90807662437367    0.94711661170265    1.89874157025124
H          -1.83203141127175    0.88116381827021    1.63713665421560
H          -0.43404454780466    1.15257698878408    1.06846444826395
O           2.20180463416927    2.68869677657958   -0.68723962046154
H           1.95590726251529    3.53873026063062   -1.05898616373049
H           1.37033765439180    2.23472882625876   -0.44833000031593
N           0.24260960787047   -1.45111644185871    1.75560468058076
H          -0.46045633783068   -1.98154606568357    1.14869773624257
H           1.02294558744741   -1.15623203071951    1.08528020890013
H          -0.21407110534431   -0.55949234799905    2.07063551314509
H           0.59604024754246   -2.00379070701128    2.52822835446380
