    23
        -45.37858931  Gyration_radius:  2.33484884607 Dipole_moment: 3.168
 S           0.20939896466951    1.71701365348365   -0.88935901235734
O           1.50600830247075    1.06047353749231   -0.96086120220073
O          -0.85458094791781    0.85133763096169   -1.40212351436562
O          -0.10659875463937    2.25544234272459    0.41468860993278
O           0.29016792444443    2.95806245274089   -1.87352791215183
H           0.70685210091047    2.61305706425921   -2.65767800403630
H          -1.85279164118752    1.42069534229495    1.14723189397180
O          -2.17465414055546    0.56534692133183    0.83302170436830
H          -1.88349186105742    0.57610356969524   -0.10672807153062
O          -0.00212289362224   -2.92838695554407   -0.13400076119953
H          -0.75126936143259   -3.41767602345441   -0.47757141163860
H           0.31057764369855   -2.35425144196619   -0.88644271511380
O           1.58211846283206    0.66169156805674    1.64899765444246
H           1.94108151381656    0.59979541904307    0.74563645026478
H           1.00862752371426    1.44619446876346    1.56126484769757
O           0.61732672961727   -1.23735729845582   -2.03495737192939
H          -0.11119542517599   -0.58871987376694   -1.95755684385581
H           1.38261554443792   -0.70518053334515   -1.77555590871240
N          -0.36752258394225   -1.11531337100643    1.77939900653672
H          -1.17999106977207   -0.50373512577042    1.45901304322989
H          -0.22264982338855   -1.88656095655974    1.07295984156602
H           0.49337942388184   -0.48587172848492    1.79338391167757
H          -0.54128562178485   -1.50216066247544    2.70076575539908
