    23
        -45.37098823  Gyration_radius:  2.43895285447 Dipole_moment: 7.092
 S           1.96322770305268   -0.65432516868030   -1.32725224737249
O           0.76590855242110   -0.05779046198890   -1.92074517049718
O           2.89181806422635   -1.23730991079819   -2.23674888403457
O           2.70866984881115    0.62889789833649   -0.67072515400460
O           1.60975269167260   -1.49347262120878   -0.18213764925011
H           0.03248311873247   -2.02884114632913   -0.54716708820452
H           3.62241811274403    0.36266850771605   -0.68823232431284
O          -0.89415556170973   -1.96030401589949   -0.85920021672323
H          -0.82376750589919   -1.34756303675952   -1.60149628663676
O          -2.00724938765063   -0.85946648367643    1.22634628481576
H          -1.63136151083835   -1.29295827660065    0.40658428144926
H          -2.63951247573747   -1.48464298792789    1.58289934477263
O           0.62538287642855   -0.09021010942602    1.81262998735105
H           1.10557717141475   -0.69207772299095    1.19809346781585
H          -0.27214689890779   -0.45457114592025    1.87851752355063
O          -2.50151582012037    1.67606050366927    0.44168167870094
H          -2.43783940578852    0.73429145267527    0.71029721935232
H          -2.90306734656282    2.14242858166817    1.17606026251939
N           0.15250303797309    1.65522120939062   -0.08314773245455
H           0.71374954726403    2.49663254529567   -0.15201701922621
H           0.42571514847862    1.07702214993018    0.77558797001000
H          -0.86708971409261    1.85774677532181   -0.02122876880654
H           0.36049974405607    1.02256346419971   -0.91859948884536
