    23
        -45.37549236  Gyration_radius:  2.39563803612 Dipole_moment: 1.141
 S          -0.38825138291542    0.51832787586636   -1.75780651186509
O          -1.77419622801031    0.30765017210629   -1.37993737895817
O           0.29324127533996    1.47102695711864   -0.90914488086085
O           0.33025012114529   -0.75026152848238   -1.86114834929157
O          -0.39518254869964    1.14312719399179   -3.21494441589985
H          -0.82794921640500    0.48434308618027   -3.75070581960151
H          -0.43526866952580   -1.63762230290954   -0.64928177540268
O          -0.90622290983486   -1.89215057092523    0.17260926061390
H          -1.82870487321977   -1.68738934556517   -0.00552702175364
O          -2.58745048664107    1.21209048238994    1.01320281604587
H          -3.22485071655707    1.91406457322670    0.87988642093448
H          -2.34661830672598    0.89800751894835    0.11630584529855
O           2.45640081834433    0.06906158224636    2.18562377481848
H           3.01694078221683    0.84228960534646    2.10367440536045
H           2.54648382327273   -0.41560346173332    1.33468797280107
O           2.41653849314628   -1.14450232644511   -0.21638321370504
H           2.36498677005297   -2.10148445372195   -0.17286854016379
H           1.73762791678401   -0.87797086144310   -0.86859926133942
N          -0.08708802800968    0.33322771197103    1.43235480367120
H           0.78604766248613    0.28746320728168    2.00224880755521
H          -0.89583107368657    0.77632248416429    1.87760783844736
H           0.12132264492654    0.87836992544141    0.55206690456223
H          -0.37222584747834   -0.62838754509242    1.11607830873240
