    23
        -45.37373348  Gyration_radius:  2.35438460349 Dipole_moment: 3.663
 S           0.40403974827498    1.14771142044138   -1.48284505623641
O           1.39196829338920    0.14696079509306   -1.13410150987045
O           0.67083265352597    2.44342051250674   -0.89539419140432
O           0.49935991375847    1.36725168677057   -3.05556219537027
O          -0.95285596576095    0.66667344345155   -1.24583668216339
H          -1.09730119105749   -0.95093328747616   -1.41954137264324
H           1.18579578550368    2.02394394871306   -3.08394655306083
O          -1.32708426368105   -1.91183189498568   -1.35041434578697
H          -2.21404025699623   -1.98669578118054   -1.70680231684153
O           1.96470825040426   -1.44245296335240    0.84093294417807
H           2.48037069271861   -2.11515729569009    0.39257881610748
H           1.80882989432339   -0.74435157682788    0.15723335995953
O          -1.48874274734193    0.65317511236049    1.36528633939736
H          -0.74795489568864    1.21569148355611    1.68531310366870
H          -1.46490031292901    0.76990618464470    0.39275244459493
O           0.65464429667570    2.18304283502151    1.71775345637019
H           0.59774458647620    3.07441657453292    2.06656358666008
H           0.75587970717050    2.28404038319204    0.74293234334309
N          -0.63112507442449   -1.79500598475296    1.22642276088499
H           0.42319542433773   -1.72888632806152    1.18725862347804
H          -0.95996911473889   -2.03495630488913    0.26001166616270
H          -0.94426712112246   -2.46513455630448    1.91864107060781
H          -1.00912830283770   -0.80082839677145    1.42076369795572
