    23
        -45.35310722  Gyration_radius:  2.57440371043 Dipole_moment: 2.874
 S           1.19765100259766   -0.78050578808261   -2.24862967509022
O           0.23394732137681   -1.74306291389397   -1.79108204092869
O           2.49511615440193   -0.82203749880624   -1.66642285879240
O           1.36321665892426   -0.99094840509325   -3.80584601025212
O           0.61099965955085    0.62365974961500   -2.16048043558001
H          -0.29910839223388    0.66972868945163   -1.58808688561929
H           0.49857693301114   -1.23248160401523   -4.13032893009353
O          -0.77194822195856   -1.41992901921043    0.70562678758916
H          -0.58228397288891   -1.93216279867772   -0.09338354845076
O          -1.41233072955826    0.72168058603499   -0.74647952234364
H          -1.35743574541926   -0.13543091433467   -0.25511916984063
H          -1.18052052734392    1.40146700463781   -0.07109236124977
O          -0.77120691826570    2.21215119537465    1.38447651306345
H          -1.09409624705077    1.50206069656677    1.98357858462615
H          -1.31728254540562    2.98048020376859    1.55748258036818
O          -1.70158889671002    0.10424729773755    2.78557647785861
H          -1.60385294513714   -0.56289010671747    2.08563801841645
H          -1.20619427035629   -0.22598922585649    3.53682727603798
N           1.47733055031697   -0.00708394926476    0.94099183131540
H           1.22353224455489    0.97387698050647    0.89816078238608
H           2.14531080399034   -0.11559705054219    1.69424941609641
H           0.09759043581359   -0.97656490360045    0.91007162023800
H           1.95457766771669   -0.24466822559455    0.07427156019382
