    23
        -45.37407309  Gyration_radius:  2.32373469444 Dipole_moment: 7.055
 S          -0.60441093718201   -1.22918648480498   -0.79676183372344
O           0.17322571670992   -0.47052823649977   -1.76581051539703
O          -1.14336348857821   -2.45994439896085   -1.29962150312934
O           0.45494344776946   -1.60435523650311    0.36072155769763
O          -1.56660265310891   -0.38001734363127   -0.09856524205596
H          -1.76266500775665    1.21108716309443   -0.51370941024932
H           1.00957427066896   -2.23760425603936   -0.13629455452410
O          -1.84379637680862    2.19456083671182   -0.47789595311272
H          -2.75439508137155    2.36924207799129   -0.23321835374759
O           1.41636074893761   -2.97282930179345   -1.67091138037017
H           1.55072378250760   -2.21486246713007   -2.25011555293159
H           0.45948624555033   -3.15139987922506   -1.73432557576079
O          -0.73830870250345   -0.00214812753254    2.35006940626553
H          -1.19490975340781   -0.20802370762023    1.49778959871795
H          -0.11879822780619   -0.72882939755159    2.45683397504681
O           1.92147599486349    0.83296683516754   -0.39739668604358
H           1.26366580211457    0.41866924032859   -1.02288523588171
H           2.32138336325068    0.09107985637086    0.06287652187513
N           0.24411490611156    2.13941490808952    1.15471416042684
H          -0.57066622606122    2.36668079293103    0.52512262413806
H           0.99797056421770    1.71312912878330    0.53400739929688
H           0.57770295395990    2.95499711390985    1.65560973079453
H          -0.09271134207901    1.36790088391293    1.79976680266697
