    23
        -45.36269515  Gyration_radius:  2.38553665092 Dipole_moment: 5.033
 S          -1.34044176211975    0.68644648254496    1.07090297341913
O          -0.00413908819147    1.22568947473331    0.93152975110612
O          -1.74551588289218    0.33206236856547    2.38446759764005
O          -2.34904162301046    1.68244742780697    0.47970189706996
O          -1.45831369209270   -0.55551976306734    0.14995559884154
H          -0.69020072516345   -0.67402516686900   -0.49065572071959
H          -2.08866424220535    1.91067667235506   -0.47357462132002
O           0.47852135506447   -1.10060803545649   -1.45806222751059
H           0.10802238099751   -1.74629537509092   -2.06268219066364
O           0.93348084669123    1.63904201524916   -1.53322570409135
H           0.80303492719435    1.63025564885057   -0.56617515629920
H           1.00286312689488    0.70425744178875   -1.77218343432965
O          -1.57470655364079    2.26502518451732   -1.88803990873724
H          -0.59601988324671    2.06290101849861   -1.87148679115228
H          -1.65318272698956    3.21138501386618   -2.02535249196957
O           0.77364633467459   -0.83203262080866    2.52374093439844
H           0.83060298591835    0.01901364866735    2.06774924072632
H          -0.11075551713752   -0.82792716752835    2.90635741298906
N           1.79530683108168   -2.40205143813225    0.37091710269149
H           1.04363787374346   -1.61814129152365   -0.78087086668789
H           1.44167426028728   -1.93794803641068    1.21306861861856
H           1.59947109280545   -3.39118716409040    0.46210037904780
H           2.80071968125330   -2.28346633844039    0.36181761690365
