    23
        -45.38129151  Gyration_radius:  2.28573368305 Dipole_moment: 2.150
 S          -0.55239401684585    0.99992782708580    1.40601221693189
O           0.61725737502361    0.52668281807817    2.11507961818133
O          -1.49325757426489   -0.04719539237073    1.04940493472038
O          -1.32590529415286    1.95054312490369    2.40948511429152
O          -0.19274612456426    1.81350398999317    0.24815739854028
H           1.26602741438497    1.05177112180193   -0.14365933998590
H          -0.62160918762548    2.40717685010830    2.85871287713507
O           2.05119053131302    0.50526221786344   -0.34442830206086
H           2.46757302797951    0.36962326644263    0.51072286407712
O           1.07534802868896   -1.94091137180775   -0.91999850800491
H           0.90994936134377   -2.19707281223474    0.01611410358098
H           1.60205937056767   -1.11627377213782   -0.85208461182310
O          -0.40970007418369    1.56826059391272   -2.38901203435762
H          -0.42022976526771    1.86725484392795   -1.45636544927555
H           0.51668551843851    1.56868883983741   -2.64335294655492
O           0.35920348429642   -2.08141533405665    1.65230039598387
H           0.58378160267711   -1.16957380970546    1.92549888751148
H          -0.60019921404916   -2.10690389183938    1.69629803400927
N          -1.19235588261945   -0.80695020139776   -1.45051004406398
H          -1.44863050373546   -0.50562492835204   -0.47168598555390
H          -0.27870043276308   -1.38059548343652   -1.34391477020463
H          -1.93842368650132   -1.34226633083954   -1.87967187686191
H          -0.97492395807119    0.06608785424286   -1.99310255623602
