    23
        -45.36526837  Gyration_radius:  2.42147670257 Dipole_moment: 8.056
 S          -1.51260460268840   -1.92223971232317   -0.35350911847005
O          -0.15056267369057   -1.75707349920626   -0.88076361209312
O          -2.24849146856019   -2.98688392304545   -0.95398937791200
O          -1.29686105454314   -2.34274188295477    1.18784184225895
O          -2.17879811180058   -0.63154040111247   -0.27732081531975
H          -1.53084586666500    0.17180953068271    0.82403598412632
H          -1.34497853172049   -3.28997953760637    1.12215878881087
O          -1.08471478380392    0.78961449411778    1.48934888476364
H          -1.78226364745035    1.06267071128695    2.08649020884767
O           0.12319230551748    0.29363704300140   -2.41467044783685
H          -0.08449921231624   -0.52088508429507   -1.88050788832622
H           0.96650078793531    0.10922273445601   -2.83445569055578
O           2.67632196410077    1.32057046372771    0.35957930544738
H           2.26263805479810    0.44764503010358    0.61166327788552
H           3.19779422169897    1.59201344248751    1.11566342560269
O           1.27277350871117   -0.75303508154008    1.10553874084559
H           0.53238971260310   -0.38650741075607    1.60548802742394
H           0.84598515403192   -1.22351471268236    0.35666925881770
N           0.26077839822427    2.03779202087625   -0.45420677294279
H          -0.34047985561124    1.66560573506781    0.32364817562962
H           0.00747106620643    2.98776266117820   -0.70011646129483
H           1.26380492500236    1.95437552971504   -0.14655236373411
H           0.14544970999989    1.38168184883102   -1.29203338196914
