    23
        -45.37173660  Gyration_radius:  2.4041012743 Dipole_moment: 2.408
 S          -0.64393718132658    1.08470121531067    1.10250429531537
O          -0.28569989077815    1.57625609222952   -0.20491084285858
O          -1.16993149314447   -0.28473598880371    1.04673549466558
O           0.40073182692260    1.22655731490842    2.09418667585496
O          -1.86744836714817    1.98290156252343    1.59987553253251
H          -1.85716141387335    1.89794473491415    2.54944442292552
H           1.66619452204960    0.71974418794149    1.18239529214639
O           2.29756133781432    0.43318565252137    0.47835377109440
H           2.50243413783569    1.23461978543056   -0.00870429757189
O          -0.83936430243304    0.27633068798912   -2.51072895152297
H          -0.56183368783363    1.01350970795111   -1.93832932052959
H          -1.75818966772499    0.11619218110794   -2.21916685668368
O          -2.98984152198612    0.21053372788918   -0.85832858175385
H          -2.42454080505905   -0.05446974673841   -0.10852202596182
H          -3.25052241533716    1.11470394326009   -0.67270476107201
O           2.62895730129934   -2.42970018286318    0.45390199607888
H           2.78481906669521   -1.49121213746346    0.62169638181577
H           2.99839255279392   -2.90383655201228    1.19972616836353
N           0.48008310214127   -1.17928070296494   -0.78429762466012
H           0.83014341470217   -2.13249766789316   -0.85887561310068
H          -0.22616272491529   -1.07372830960765   -0.01300409615875
H           1.26608505815302   -0.55867462784897   -0.49321399369595
H           0.01923116117118   -0.77904485772723   -1.65803305529537
