    23
        -45.36083069  Gyration_radius:  2.3819312094 Dipole_moment: 4.215
 S           0.76049679639791    1.07396403749160   -1.08277551757045
O          -0.66151954235930    0.79477271940931   -1.00530920615888
O           1.44220279464127    0.58127386634194   -2.22769782173477
O           0.99002199183625    2.58157326586797   -0.94312086099435
O           1.40336140968780    0.49468245952013    0.20901369910135
H           0.70739609718725   -0.08704333759329    0.67221609122986
H           0.27616479821635    2.92007739691300   -0.30229594986092
O          -0.53584385349853   -0.83484026567843    1.17182839043310
H          -1.09205161869120   -0.43739783344689    0.48705280324456
O          -0.24344642034205   -1.56860290074879   -2.38932420657613
H          -0.78613850014384   -0.83621401015330   -2.07253160749141
H           0.56771256247224   -1.13501912939793   -2.68372845244316
O          -0.94589416491750    3.00362811859455    0.64213869192895
H          -0.69410567270427    2.57380491542757    1.49087205811262
H          -1.47992512995929    2.36122184401288    0.15959507926446
O          -0.06731744340076    1.46890223253285    2.66943076642508
H          -0.35928616123745    0.57303551892971    2.44552904227470
H           0.89091378523977    1.46301732042009    2.60866906178685
N          -0.01232632037746   -3.11074674293287    0.01149637518201
H          -0.06846793889095   -2.74440964211177   -0.94313417622852
H           0.92213926133847   -3.47350102583976    0.14962199934196
H          -0.35199946264018   -1.77941377048824    0.84422606167515
H          -0.66208726787953   -3.88276504711099    0.08822767903266
