    23
        -45.36485550  Gyration_radius:  2.31179150879 Dipole_moment: 5.590
 S          -1.73900882231350   -0.27964392834867   -0.67990433465528
O          -1.64464616540993    0.88236082070314    0.22921892399447
O          -2.95333952037058   -0.34364050468757   -1.41450889869065
O          -0.53165046940687   -0.05436311832106   -1.71289703736827
O          -1.35276139508494   -1.50278908751650    0.02266092498350
H           0.25635619525043   -1.92785843192741   -0.24403608635417
H          -0.75194300828534    0.82816698219978   -2.08212725409880
O           1.21118602472221   -2.15347005831471   -0.24200720239694
H           1.28919063004584   -2.96681540333075   -0.74099698568057
O           1.72501573710432    1.12370792835638   -0.66586500919643
H           0.96266109845582    0.60358087724449   -0.98168106897049
H           2.43566070604282    0.95038553801624   -1.28623656867569
O           2.06409558005888   -0.34530955869043    1.57271887270947
H           2.01053803030572   -1.16219791533294    1.04495227486445
H           2.08463976304677    0.36072886519810    0.89479396844892
O          -1.00722176823333    2.51799755377646   -1.76734105958652
H          -0.17248118641007    2.88892182570249   -1.46602894980415
H          -1.45731895395995    2.19093585445157   -0.96676365684299
N          -0.47977001386429   -0.31832055973479    2.15147104085328
H          -0.80267054786892   -0.28619771996547    3.11171015238622
H           0.59170231045815   -0.28007406195212    2.05985955014153
H          -0.81594569545619   -1.15546123309979    1.63060528843265
H          -0.92228852883079    0.42935532556999    1.53240312550452
