    23
        -45.36963244  Gyration_radius:  2.27083618039 Dipole_moment: 5.880
 S           1.27246328333088    1.62027107353743    0.34658637671147
O           2.07058217517491    1.82272750865587    1.51673952306880
O           1.36483453107253    2.57248061551885   -0.71924403392601
O           1.87568834248345    0.22129214960686   -0.30061481160661
O          -0.11554437119645    1.24041219200141    0.64599144618766
H           0.42176101929984    0.18833524210178    1.82159241429191
H           2.78923841901619    0.46652760960501   -0.41063131641323
O           0.68491953503609   -0.63448553853887    2.28301299945252
H           1.60315607862603   -0.48673156285679    2.51833742695833
O          -2.56314085621707    0.16003332469075    0.29944750998515
H          -2.60480528943553    0.39466899909651   -0.63435654084832
H          -1.87314213210395    0.74151715884797    0.66212555204549
O          -0.78417705358676    1.07231163558832   -1.89882481067865
H          -0.49072177721312    1.22871401011864   -0.97651773998326
H          -0.31241225122254    1.74147950433525   -2.40067277695774
O           0.26335276346635   -1.39469077093980   -1.79454456977842
H           1.07641765755200   -1.02360646362146   -1.41852453941005
H          -0.24216977767099   -0.59342429038879   -2.05513921701410
N          -0.89265187089932   -1.90003028681318    0.51256828104772
H          -0.21049096009941   -1.57567419240579    1.23801563532228
H          -0.42262853364210   -1.83769576459442   -0.44610906328464
H          -1.23121625564736   -2.83364290081440    0.71673865545321
H          -1.67931267612700   -1.19078926273134    0.49402358937914
