    23
        -45.35987789  Gyration_radius:  2.29176175359 Dipole_moment: 4.340
 S          -0.74240987339529   -1.38619333306133    0.00072382788154
O          -0.23098696300900   -2.08430179041553   -1.13936083921276
O          -1.60028759276774   -2.10545870023566    0.88671243049034
O           0.44614950780990   -0.80018832037509    0.80001677148216
O          -1.52139036097678   -0.12755123922371   -0.47195399906783
H          -0.94815865334591    0.70133975422771   -0.47874762689528
H           1.32098948016974   -0.98887776413299    0.28190435378882
O           2.44528583835936   -1.31013504649613   -0.63767267988239
H           2.17864435014278   -2.18367601570019   -0.94138835501420
O           0.14747644275882    1.62958057099350    2.18554506928295
H           0.84637849824127    0.97383884291393    2.25687163849756
H          -0.67608316312465    1.13055726244023    2.37471026006740
O          -2.02252816344429    0.03698576924115    2.42634541538878
H          -2.90502941448319    0.30119215961143    2.15969318643214
H          -1.85791593087698   -0.81829753392837    1.98613363726168
O          -0.14176990889918    2.03034180128344   -0.36305607156696
H           0.06748809151458    1.94574458689556    0.61600553500091
H          -0.72958119939452    2.78532433352936   -0.43923653395891
N           1.15954742244135    0.14642759391865   -2.41694763211496
H           1.33219061569642    0.35018272421827   -3.39256021978915
H           2.17367327341076   -0.68975499651522   -1.37482426780682
H           0.85026154484739    0.99846309298560   -1.96337556682061
H           0.40805615832913   -0.53554375218455   -2.35553831345617
