    23
        -45.36610748  Gyration_radius:  2.45127921314 Dipole_moment: 5.594
 S           0.19604356489593    1.51548501914865   -0.81368738209704
O          -0.85608908394630    0.78008821172626   -1.51631232453136
O           0.30653881070340    2.89325503240653   -1.19663700845837
O          -0.30768951324913    1.50569387231224    0.73733418103934
O           1.43406431824045    0.76243946549129   -0.76733716881598
H           0.80855630908690   -1.59946718557397   -1.91414515202490
H          -1.12593271191074    2.04209107071834    0.65152393602847
O          -0.01069421538771   -1.63314531602318   -1.41493173015807
H          -0.41649936749980   -0.72689012784491   -1.54168384006652
O           2.93924505973036   -0.19966191041070    1.17369953117213
H           3.30420968559926    0.52592005252619    1.68246430247927
H           2.55237664779661    0.20696542692415    0.36558263389856
O          -2.23397530020228    2.87298446149224   -0.38539625554325
H          -2.37409600879000    2.12983495125001   -0.98604829266400
H          -1.46950033634696    3.33659572103967   -0.76784435462352
O          -1.45211920581971   -2.98718897104838    0.69596163402599
H          -2.26528867416931   -3.48419137785780    0.59970115069645
H          -1.17089717824370   -2.74147544548191   -0.19553181277521
N           0.42743714291571   -1.05532805185234    1.15556536158479
H           0.37668676379598   -1.34464767679051    0.13616396190261
H           1.43368794839559   -0.94986134768448    1.41532078734700
H           0.00329077961067   -0.10865621050611    1.18860235541068
H          -0.09935542526723   -1.74083966395967    1.69763547624225
