    23
        -45.37787474  Gyration_radius:  2.25702826418 Dipole_moment: 3.762
 S          -0.96095584627956    0.59744774325322    1.34630356023339
O          -0.14906076161687   -0.13534791461385    2.29903025160546
O          -2.07661652877306    1.31799084657142    1.86720634223954
O           0.05874935720549    1.66902894057346    0.71215725872511
O          -1.31565947044655   -0.25776184703475    0.19301712213556
H          -0.44150002139554   -0.06363407984777   -1.22102668398354
H          -0.53857507250225    2.15407406484933    0.11401158438837
O           0.10170201292359    0.04020905594760   -2.03381590482257
H          -0.30455726690442    0.75774036161524   -2.52381164957902
O           2.29218527045039    0.57145846597112   -0.55687020220456
H           1.83216177085490    1.23279743877515   -0.02053226985090
H           1.66872095719284    0.38041331955573   -1.28881209359946
O          -2.10307234484582    2.12868501075151   -0.76472611455887
H          -2.14098224583978    1.18199264090093   -0.54835462214166
H          -2.68040962282709    2.54469886424072   -0.11762603399912
O          -0.23765163394300   -2.59391185542096   -0.57645177168944
H          -0.09600140882645   -2.35762728023875   -1.49839603910010
H          -0.83941447529446   -1.90602838471015   -0.22738035956669
N           1.61562964539137   -1.47499743173975    0.97602472798162
H           2.07005958241472   -0.73290215048444    0.37078589812722
H           1.02427495261050   -2.09708216048348    0.36710746074236
H           2.29379592673392   -2.00122596905929    1.51543185424540
H           0.92717723377075   -0.95601768943218    1.61672768467639
