    23
        -45.37465116  Gyration_radius:  2.26023265863 Dipole_moment: 4.375
 S           1.00382827068182    1.25813731842770    1.09664534032845
O           1.39180451967766    0.96519614194797   -0.29836964308569
O           1.24783157610924    2.61468889758769    1.45734406949517
O          -0.58948075590399    1.02859594239190    1.11860868584258
O           1.49118560941343    0.22346088303075    1.99414294500942
H           1.31906451571840   -0.40529639325054   -1.04185909723620
H          -0.89831661726346    1.64558240514164    0.43315314647390
O           1.17709656997314   -1.29886167204617   -1.46763503632285
H           1.90510567515934   -1.42193275430881   -2.07794423089851
O          -1.47064794466056   -0.29651520172807   -1.68030430548749
H          -0.59551087827425   -0.69099039111173   -1.80998809215978
H          -1.34123659610486    0.65874029863939   -1.68055960284654
O          -2.09187455709106   -1.25115228705960    0.75132131618158
H          -2.04682011614212   -0.98832347660818   -0.19684637520019
H          -2.03346803024788   -0.41742798301318    1.23373610447559
O          -0.54978771018806    2.47195517536150   -1.11836236398637
H           0.31168200588046    2.01390450796129   -0.98971506683033
H          -0.37668034041810    3.40309310959532   -0.96588809121555
N           0.43445196183203   -1.93182993145488    1.05755985512156
H           0.65104244968279   -2.77487575437096    1.57819093100233
H           0.79331405714214   -1.97800784974968    0.08602664135989
H          -0.62029145402345   -1.76200994797070    1.00201953093648
H           0.88770778903079   -1.06613104738769    1.51872333904566
