    23
        -45.37985878  Gyration_radius:  2.25834084748 Dipole_moment: 2.614
 S          -1.79739127266587   -0.22041029377728   -0.54173351344895
O          -1.54568678579754   -0.83903116645525    0.75839344813843
O          -2.05938522847649   -1.16028222059303   -1.59228452133282
O          -3.11987045502403    0.65597740135583   -0.35652403615459
O          -0.75506126942035    0.75153785020259   -0.85968120540968
H          -0.98511723251121    1.95615064868767    1.08159041624089
H          -3.81741414978843    0.08320279915917   -0.66049041049711
O          -0.77996947322838    1.40556557934286    1.84356465112376
H          -1.17174177495688    0.53335032055267    1.60679508098879
O           0.89865642139485   -1.88454107327997    0.76464045502618
H          -0.05603849325548   -1.69471589437851    0.88229318507630
H           1.02508678272313   -1.86917253412332   -0.20437198621749
O           0.73005432566469   -1.25342162127006   -1.87164955456262
H           0.11602282222926   -0.54109951700491   -1.61384739388922
H           0.17233519103825   -1.87854120310504   -2.34191571155362
O           1.86770964782842    1.37104629392031   -1.09941917814149
H           0.89424633881682    1.40143668703664   -1.12462370505061
H           2.09805358452803    0.62372840260647   -1.66143797446594
N           1.68752248867387    0.52187781048356    1.42091302160624
H           1.47747416839869   -0.51768720394350    1.25331707167372
H           2.41156714550207    0.66131783201104    2.11602343067901
H           1.94216016880747    0.93359009113764    0.48570760929155
H           0.76678705948861    0.96012101146542    1.71474083093940
