    23
        -45.36935217  Gyration_radius:  2.59129423946 Dipole_moment: 5.481
 S           0.73361900570059   -0.25143561123338    2.22748954996299
O          -0.22815247728069   -1.29387650555039    1.86552557834904
O           0.09854204311109    1.02537157041569    2.47384211788719
O           1.37694268386487   -0.69355870475614    3.61568769242438
O           1.83375515614243   -0.18759159567152    1.28227241543286
H           1.64282678530136   -1.67625946293144   -0.23234816956581
H           0.76858820770334   -0.32379482778775    4.24790202542563
O           0.75812432779764   -1.98793991539898   -0.45839844305164
H           0.29633035619207   -1.93600915909969    0.41011264407765
O           1.73188395837838    1.73383510282131   -0.50196824679894
H           2.63694574962703    1.95269757600572   -0.72692084523148
H           1.78528029612600    1.10662033390624    0.25823560167657
O          -1.86376171453751    0.50330510038161    0.80873186242032
H          -1.65580546075214   -0.38157309552973    1.15764329563650
H          -1.31419692560651    1.06032688436674    1.39478205475315
O          -1.95798925397545    0.16823910807339   -3.66304120926889
H          -2.80064000087378    0.60970190371488   -3.53497254628899
H          -2.13959699115153   -0.70582857547638   -4.01514889802387
N          -0.34609953371779    0.26283278140227   -1.35235228529378
H          -0.80692911929226    0.30002217944565   -2.26847094620068
H           0.41938018050232    0.95864054945563   -1.26019874577583
H          -1.04010648699276    0.44639799027107   -0.57095888954305
H           0.07105922373501   -0.69012360682311   -1.15744559301178
