    23
        -45.37474116  Gyration_radius:  2.51184935227 Dipole_moment: 3.722
 S          -0.28496202679891   -0.86112323129852   -1.10115538579793
O          -1.01847892795533    0.39649509570277   -0.97287027459945
O          -0.93307943324938   -1.82535033762056   -1.94852522007151
O           1.10492180277564   -0.47014796723375   -1.78084782612653
O           0.11000063138537   -1.36677825017401    0.20981696083140
H           1.52259221549200   -0.60542550064039    0.63507594320732
H           0.88099336900669   -0.43287817622078   -2.73295758427932
O           2.23600222323862    0.06604329932720    0.74360727388106
H           2.69884740452760    0.05290075072716   -0.09810542995603
O          -1.13191941501739   -1.15153607592879    2.53568468583356
H          -0.58897566619868   -1.70044973040952    3.10438407453588
H          -0.76295942974855   -1.26211519566689    1.63213920078238
O          -1.26813089981016    1.46167886970908    2.89495858715541
H          -1.21466551822519    0.47362224144088    2.86472313306749
H          -2.19383195640024    1.66946432266993    2.75520533552548
O          -0.01745281118851   -0.78053188461366   -4.14802595225895
H          -0.60156685046565   -1.21703259861594   -3.48925505056140
H           0.29535048301236   -1.47745822538776   -4.72934655580187
N           0.24431494536907    1.83836292432094    0.73018908904123
H          -0.30594480801666    1.79983640510536    1.62895390746352
H           0.41706880095201    2.79497491384714    0.44240622914192
H           1.13945851952032    1.29603230011226    0.83940144638352
H          -0.32758264220869    1.30141607084492   -0.01545659741603
