    23
        -45.37208501  Gyration_radius:  2.39483001401 Dipole_moment: 2.644
 S           0.57365405027124    1.90904253991058   -0.72409110151320
O           0.03378092138762    2.06867211061534    0.62715087460752
O          -0.39996201377228    2.07019215989685   -1.76467698582779
O           1.63890186202365    3.08412004112988   -0.90337128456176
O           1.35941743887305    0.67927099346832   -0.82488956617212
H           0.20057738487128   -0.26267000205306   -1.60643868616872
H           1.15058467324684    3.79025793710997   -1.31743604362511
O          -0.62636972344015   -0.68237879793312   -1.92125587204808
H          -0.99609863950544   -0.03275047083788   -2.52703262774337
O          -0.36019124110960   -3.03000043123320   -0.46461132861238
H          -1.06112082286873   -3.63144993582497   -0.72119587342678
H          -0.40959891464018   -2.27697689564201   -1.07550059259596
O          -0.61769786147197   -1.66976234809320    1.85546185372509
H          -1.28281579557793   -1.04369641373049    1.47914068867518
H          -0.46296402438957   -2.31283265548083    1.13272529856949
O          -1.90302383924946    0.14831644506252    0.41525882318354
H          -1.41221477718892    0.97788623361618    0.52502821456865
H          -1.66712540033024   -0.17430095338459   -0.47071397160181
N           1.28085757287175    0.06514689408437    1.69463937756760
H           2.01667318741464    0.08381441277947    2.39135470844014
H           1.64205031198445    0.00139193218427    0.71881617436648
H           0.54865238113454   -0.73384540041312    1.85667138274347
H           0.75403326945150    0.97255260475036    1.62496652744700
