    23
        -45.36512633  Gyration_radius:  2.54753650589 Dipole_moment: 4.387
 S           0.61350046376913    1.88729240811843   -1.65397658723467
O           2.04012800149734    1.68967453509208   -1.60125582873729
O          -0.05734424980460    0.92054897081577   -2.52325737002811
O          -0.00545471657582    1.93249935234326   -0.33026456251294
O           0.35415384501322    3.32139492473148   -2.29207936784522
H           0.91898465201879    3.33512514086669   -3.05981154939947
H           1.03694326286129    0.87942705985639    0.36451861136067
O           1.60048011873665    0.09766730217861    0.58108046257681
H           2.40073510959655    0.27437260482919    0.07493312204112
O          -0.03267282323668   -0.83412606395568    2.54585471377915
H           0.67114595484879   -0.51248680477896    1.95344110308604
H           0.30701299001558   -0.76036759124900    3.43872399129848
O          -1.91669560827352    0.40433599447161    0.80137980028141
H          -1.41133174865228    1.16601049461588    0.45704856200846
H          -1.48499708146039    0.14618138718088    1.62774375994956
O          -0.81754731567099   -3.02615485080114    0.93266163462602
H          -1.35024324384792   -3.66117594536551    1.41195940052518
H          -0.59214984987014   -2.32698611196415    1.56613660925585
N          -0.45878589766255   -1.02033296125610   -0.88055766113118
H          -0.36123440000558   -0.34825673708588   -1.70516302510909
H          -1.20857965505314   -0.61320838477514   -0.24748520914667
H          -0.67331166504545   -1.98671685557021   -1.11145801868880
H           0.42726383677274   -0.96471786829587   -0.35017259101371
