    23
        -45.37536425  Gyration_radius:  2.3764022026 Dipole_moment: 5.051
 S          -1.05666570681167   -0.03556571928102   -0.18054428407378
O          -0.10771780916129    0.88981863793454   -0.81141866871909
O          -0.57152876504944   -1.39494491140550   -0.22217677864630
O          -1.38563650345706    0.41201027015949    1.17336104637707
O          -2.36985783552396    0.00950048604979   -1.02851476849219
H          -2.79705667996113    0.85667729944923   -0.78747541222092
H          -0.05090858393788    0.23601108549701    2.14561337169473
O           0.80884094588259    0.26714304245816    2.62678383608913
H           0.69545877409362    0.91239670626775    3.32691066554419
O           2.05633491880580   -2.17026398546276   -0.64447605762761
H           1.81594259312799   -1.97056381921209   -1.57027871955260
H           1.19775064124250   -2.34731131579391   -0.23057456294220
O          -3.20114037257243    2.11735602994924    0.34408348771154
H          -2.50620679592025    1.65991716408680    0.86066954125645
H          -4.02747650192857    1.97185729960002    0.81045062787567
O           0.55038880088330   -1.14071946673846   -2.66579803383196
H          -0.06814719540438   -1.38160678150625   -1.95562901327432
H           0.50531135124452   -0.18059681129615   -2.69470361731855
N           2.14048947480021    0.27302561401965    0.30520928663459
H           2.27363629220140   -0.73313687964630   -0.03434264492984
H           1.28254884993222    0.63696492233350   -0.22256415520502
H           1.85392550046652    0.26564675436463    1.30859672019145
H           2.96171461704433    0.84638435818184    0.14681812341819
