    23
        -45.36083065  Gyration_radius:  2.38176816578 Dipole_moment: 4.205
 S          -0.37314327126603    0.57040846918735    1.55960634647313
O          -1.25576155700610   -0.17600772448979    0.68231078945454
O           0.10503648473021   -0.11319957828097    2.70958760219745
O           0.82365666813645    1.05093364440120    0.69085379591219
O          -1.05463827170496    1.87848827637900    1.97160797484594
H          -1.60893655697134    2.17449137816144    1.17166117307970
H           0.77787170186970    0.56381469087339   -0.20222942868874
O           0.42880690285424   -0.25278139587660   -1.45409668028690
H          -0.42179980514687   -0.52392282024991   -1.08094335247501
O          -0.15662645957381    2.44994952094194   -1.80783842962253
H           0.09083125932736    1.53763428061830   -2.01848699060793
H           0.55109459275075    2.80205386520752   -1.26279753552281
O          -2.30761032709020    2.22697658806247   -0.20742101499111
H          -2.46757916209467    1.27744214076632   -0.26661375282499
H          -1.62030774557116    2.43513676411913   -0.88030303413594
O           0.05833656283558   -2.51060827602873    1.39234303406250
H           0.32702935461704   -1.99916463426801    2.16626438220200
H          -0.69433121627711   -2.01514435039871    1.04735849760099
N           1.83763950135350   -2.36129053471654   -0.84525012919830
H           1.82996306720474   -3.17120019795212   -1.45195191317623
H           2.79488769075271   -2.18861829418087   -0.56637961940788
H           1.03279569767899   -1.06285533557598   -1.34417649639553
H           1.30278488863404   -2.59253645670912   -0.00310522841118
