    23
        -45.36083062  Gyration_radius:  2.38183643016 Dipole_moment: 4.220
 S          -0.25963322826017    0.95478956471223   -1.38774697041647
O          -0.81332375941870   -0.36252208363466   -1.13444793863699
O          -1.17154034999812    2.04358508186469   -1.35366448181864
O           0.87105980920091    1.17566568011289   -0.34362298517413
O           0.49264114387037    0.94108019154275   -2.72163930419739
H           0.90429801087126    0.01466586089005   -2.80638934121626
H           0.80240462618819    0.43685761258026    0.35427378651615
O           0.50561181443759   -0.80402029592356    1.20605432295834
H          -0.13923926080233   -1.13315835729704    0.56415875789642
O           1.29798442898351   -1.45924999546521   -2.55161952082851
H           1.96120677265824   -1.46690313202695   -1.82455816786674
H           0.45585826922751   -1.71186929885406   -2.15439685649120
O           2.79846927577123   -1.15814478817489   -0.33920724174601
H           2.17457936402347   -1.24642670334997    0.39624713032950
H           3.09217308830212   -0.24400178575013   -0.33497958273120
O          -2.70717744033246    0.78448454713661    0.53013851195766
H          -2.50797105051624    1.59077326435992    0.03747059607715
H          -2.36523832413281    0.08428521265403   -0.03918709592492
N          -1.12722696164414    0.35249627662765    2.87801272478591
H          -1.57932218218209   -0.18884010454094    3.60369754765438
H          -0.80106863532288    1.21721940868304    3.28998574043809
H          -0.05222466737288   -0.40789521742021    1.95799758920841
H          -1.83232073355712    0.58712907132020    2.17342279926763
