    23
        -45.35637912  Gyration_radius:  2.39868911439 Dipole_moment: 7.587
 S           0.32776959539244    0.70960913571463   -2.29042187039217
O           0.98695640488515    1.30087215992110   -1.14569738654693
O           0.46150897753932    1.38083100359326   -3.52617677773089
O           0.79471028898389   -0.77106264352986   -2.38618798609279
O          -1.18265038063943    0.56361343100491   -1.95316399045393
H          -1.32059404370989   -0.28332052720907   -1.42849210075886
H           1.43796333743019   -0.93284965253537   -1.61423384836546
O           0.26925207877159   -1.55218317434700    1.45327489250224
H           0.26428586068511   -2.25045665553943    2.10924732330348
O          -1.31234838108380   -1.68125837278299   -0.70491906439820
H          -0.77363561844593   -1.65094660746557    0.11794671672232
H          -0.82628188864748   -2.22284264649835   -1.33305540162900
O           2.22904709169049   -0.87663784826354   -0.29409576696838
H           2.14149943759552    0.09028890746545   -0.29533990787794
H           1.62544537811977   -1.19501881709160    0.40665525847960
O          -1.00766911546144    2.27961530109749    0.38213615361723
H          -1.73612531322040    2.11725743218371   -0.22184929640800
H          -0.20401863234238    2.07450627527286   -0.12798502862726
N          -0.46154848674067    0.64583495689723    2.64136788564548
H          -1.27131006661209    0.57515058875701    3.24513074897295
H          -0.00803946064049   -0.69351632873619    1.93229425389650
H          -0.71021354222220    1.27211170571582    1.86817772109735
H           0.27599648870710    1.10040237638810    3.16538748202324
