    23
        -45.37040547  Gyration_radius:  2.37454513706 Dipole_moment: 7.495
 S          -1.41054177203919   -1.34780140035341   -0.12432724010709
O          -1.72641062951209    0.08532237267004   -0.21233825129736
O          -2.06884761231286   -2.02841038560594    0.93675349594913
O          -1.78219861362966   -1.99227803521758   -1.49437545480629
O           0.07483456395397   -1.47523801839629   -0.01621337006910
H           1.02834424291241   -0.74021982419466   -1.02415892954841
H          -1.50444482538949   -1.32111641110684   -2.16009534286417
O           1.64247572369189   -0.21770000964740   -1.61693983047992
H           2.25395228370315   -0.85626650894079   -1.98761679025507
O          -1.55482148615577    1.27223757794178    2.09271185985857
H          -1.78330275006542    0.79315388686862    1.25621348061060
H          -1.83178681894846    2.18072228864525    1.96179810688884
O           2.44782172603792    1.43015461457125    0.34396787670925
H           2.22425923468111    2.32470029038140    0.08189502028335
H           2.25308642073233    0.86082072920190   -0.43554469282570
O          -0.91250105078425    0.16964153206818   -2.72058441041499
H           0.04883580145141    0.18856728934307   -2.60360531399299
H          -1.28473827844051    0.47118396445561   -1.87089757094947
N           0.79298703290772    0.04454828666436    1.94842765026657
H          -0.06978716631576    0.60450293177305    2.16654489493228
H           0.49600777568765   -0.68075793011999    1.21143233242306
H           1.51475282398766    0.64993700102333    1.48932797145285
H           1.15202338384096   -0.41570423203536    2.77762449823150
