    23
        -45.36236852  Gyration_radius:  2.54118625659 Dipole_moment: 7.529
 S          -0.47587259775382   -1.56369804363438   -1.70316127422349
O          -1.36357460995007   -0.42966985944198   -1.85362778245370
O          -0.62851232342813   -2.63108490331798   -2.64027122775927
O           1.01921746903519   -0.96618321275436   -2.01943627547933
O          -0.38248466594151   -1.97492317401449   -0.29953101731035
H          -1.50798432310028   -1.40045739104762    0.75806505508912
H           1.23118734492906   -1.53616687009433   -2.75037626207888
O          -2.08746265472728   -0.99641061553396    1.44893352141485
H          -2.93629387453484   -1.43145800167056    1.36253615150712
O          -1.67316801416032    1.30178588413066    0.07287076817762
H          -1.99740536314457    0.67152377049012    0.74437041792599
H          -1.72930728824838    0.78660783295556   -0.76621756244551
O           2.29635546037932    3.17970781598650    0.32202585310886
H           2.72117972002596    3.56735884346647    1.08971719581719
H           1.79235902963724    3.87190534621342   -0.11195233414659
O           0.84306958651208   -1.23462870218710    1.94590323535152
H           0.56681201629099   -1.77130555133581    1.17677185151572
H           0.03764305910221   -1.13246240751470    2.46382686536923
N           0.87682459157666    0.75003363584627    0.15230884639654
H          -0.14601257378456    1.09055848463627    0.15766706683425
H           1.02214277424377    0.22287026504712   -0.71616318497624
H           1.52187712802094    1.54677346873338    0.21172685758439
H           0.99941011902148    0.07932339501052    0.95401324479148
