    23
        -45.37539125  Gyration_radius:  2.30832422219 Dipole_moment: 5.220
 S           1.79160803542389   -0.44286530715856    0.60430560599929
O           1.42330814785141    0.90173045620479    1.02295490163622
O           3.04292482668963   -0.54455889223033   -0.07740880564562
O           1.94413800115705   -1.28068009865213    1.97205093997051
O           0.66791553416210   -1.10237576524705   -0.06818002645816
H          -0.54056082400665   -1.18436968743624    1.05347538791376
H           2.88032142132488   -1.44238306412686    2.04418592213435
O          -1.29315944091050   -1.05716814540130    1.67695106012070
H          -0.94529558948311   -1.28995015090311    2.53911546450104
O          -1.72897070287812   -1.35686256429871   -1.40192693786754
H          -2.25235267401905   -1.59311050821061   -0.63219491170677
H          -0.80544780382840   -1.43193993815659   -1.11677097922959
O          -1.40084574322185    1.27752834714900   -1.85597020359073
H          -1.66793672484924    0.33466482875564   -1.90098962220475
H          -0.46846548825701    1.28009609072555   -2.13204552857813
O           1.28031838274345    0.74964827986196   -1.97289434513156
H           1.16610294432584   -0.00418163003934   -1.37842299110566
H           2.21370902176407    0.96481585252676   -1.92286907043050
N          -1.08674743177901    1.46834029668867    0.72207955267329
H          -1.42257201037539    2.31406164638193    1.16851924119606
H          -1.48166800687945    0.61287375851416    1.15747885518442
H          -1.28506456256337    1.46688046805847   -0.34198027791962
H          -0.03125931251554    1.35980571709466    0.84053677854485
