    23
        -45.37138556  Gyration_radius:  2.46653147649 Dipole_moment: 4.492
 S           0.07701725819107    1.99066749753464    0.49783601030306
O          -0.82163781207730    0.99211798762590    1.11464191802169
O           1.06221241057954    2.48541304325010    1.41125553013825
O           0.63790847091077    1.44518370745096   -0.73802920668425
O          -0.85747417166007    3.19793092954487    0.07607985050367
H          -1.48253562531800    2.85991748276281   -0.56934073192937
H           2.23560981327246    0.82737499368942   -0.20624616719799
O           2.77267292901536    0.58291582081407    0.57207821803397
H           2.64621894630604    1.35329831078321    1.14783813215926
O          -1.83653075475725    0.72284551274767   -1.30492901307983
H          -0.90949278110433    0.92335704275011   -1.52819398473064
H          -1.80989674069480    0.68918486955856   -0.33070458768862
O           0.27135683954617   -2.78972006394625   -0.42752902063715
H           0.94275528716455   -2.82561157133145   -1.11148074896246
H          -0.55941638135639   -2.51840374938393   -0.88712959535492
O          -1.87834446343984   -1.92562518550765   -1.72368429903342
H          -2.76286178771660   -2.22973798512218   -1.51648062830084
H          -1.90296862329419   -0.94206549528190   -1.66964547022146
N           0.83829902048167   -0.98924423411958    1.45847626506152
H           0.61644397626643   -1.74322123952133    0.75227937519844
H           0.08116534519214   -0.24263649894614    1.41268729045016
H           0.90685620200152   -1.37568107395708    2.39399471125694
H           1.73264263246999   -0.48826011139120    1.17622618267568
