    23
        -45.37985884  Gyration_radius:  2.25843094877 Dipole_moment: 2.613
 S          -0.35435763872075    1.55510445896210    1.01578810195515
O          -0.04626611144054    0.16970585067724    1.35981347033053
O          -1.72841300312333    1.91416671164161    1.21246758270554
O           0.50853032217893    2.42441053884879    2.04076324335951
O           0.15949407172658    1.88222189007238   -0.31295621955704
H           1.66219479612349    1.20282281083042   -0.16256782408316
H          -0.02399523313490    3.20052611776645    2.18552326095612
O           2.37901667448014    0.56350105640581    0.05609363760502
H           2.21010823043468    0.34615344569242    0.97810113280495
O          -0.08481160500778   -2.45919885154908    0.71943176293197
H          -1.02329748274594   -2.49824164618694    0.50695485232159
H           0.02096823133880   -1.61400023432697    1.19231279915749
O          -2.29104649755468   -0.58943862146582    0.08115213309871
H          -1.55894608744592   -0.26695410513766    0.63877437399956
H          -2.99662711762027    0.04296295906030    0.23992644479430
O          -0.79903446666047    0.13298896621204   -2.07051219786545
H          -0.48325670939307    0.93153371217339   -1.59730224626189
H          -1.51304518616797   -0.21324634645672   -1.50004845841398
N           1.21276129920719   -1.37064113483048   -1.33877137001595
H           0.41473336187330   -0.80968024820444   -1.78760323379446
H           1.82102299431465   -0.65982361155112   -0.83779932117298
H           0.77562605812076   -1.97970707783946   -0.59918515117035
H           1.73864108920971   -1.90516663079936   -2.02035676368552
