    23
        -45.38069701  Gyration_radius:  2.31482459901 Dipole_moment: 0.657
 S           0.63299272125275    0.92606623828964   -1.57308330005952
O           1.51024967470022    1.32001128734160   -0.48031472022802
O           1.07193633387639   -0.28714114483900   -2.22544089829222
O          -0.76290444513351    0.87754057586270   -1.15818756795499
O           0.70578339017874    2.08481367663733   -2.65174773528238
H           1.60025583982863    2.00268710877028   -2.96562746832460
H          -1.36157317103527   -0.55835073750531   -0.63501968795682
O          -1.68194599287536   -1.40630919968503   -0.24361297266674
H          -2.48322678707833   -1.63192505045605   -0.71812863157869
O           0.91518992178145   -2.32148677613081   -0.53798850375491
H          -0.05093651838721   -2.34015804462458   -0.44445620895364
H           1.07547013369349   -1.69500025744886   -1.27751005647316
O          -1.06896333467861   -0.38042406958829    2.26709068364832
H          -1.23509758756494    0.56152040414210    2.06051287999257
H          -1.46792747327379   -0.87547976680416    1.53230280352987
O          -1.26815498010423    2.06264234282490    1.16494975305477
H          -1.97153627346499    2.69538661562043    1.01484960225126
H          -1.01588788483029    1.71747890391704    0.28290670573183
N           1.39306189903331   -0.55148721989331    1.34415053587998
H           1.50091335956730    0.28840035891276    0.70988753569998
H           2.17220430280790   -0.62662916838812    1.98800038693578
H           0.46110550801832   -0.47335126067048    1.85675850932354
H           1.32899136369206   -1.38880483628142    0.68970834548330
