    23
        -45.36664637  Gyration_radius:  2.44765416952 Dipole_moment: 6.042
 S           1.26938887116312    0.61530472973618   -1.32548250360198
O          -0.17032331643734    0.24311362722638   -1.23516152893202
O           1.49106784005526    1.64603771396775   -2.28793418579606
O           1.57013355080504    1.26118239874954    0.13059799223178
O           2.09055437397614   -0.56398834483073   -1.36184407933923
H           1.12624592716741   -1.94534732395897   -1.34331696352747
H           1.10839117615979    2.10782110950081    0.11290360631136
O           0.37743998147057   -2.58267085709964   -1.32767869002638
H          -0.33147792359403   -2.12402425296670   -1.78594707615250
O          -0.32152722963043   -3.13055364618393    1.15923412103908
H          -0.09964350658745   -3.05471312651082    0.19511245225940
H           0.32928331823990   -3.72708303289524    1.53182774401329
O          -1.75917235092024    1.69618529261474    1.74114518966894
H          -2.70978230732536    1.80131416325136    1.67595000080917
H          -1.38011126298620    2.20252826273293    1.00442556754105
O          -0.63504608028119    2.73549377743895   -0.60516329249762
H          -0.34033262688221    3.31179496593681   -1.31426216948327
H          -0.61237672892252    1.83187533399796   -0.98939853976874
N          -0.20907766257151   -0.48178075054766    1.24110676533798
H           0.73233648105421   -0.18260253897683    1.49631419904427
H          -0.27741164745108   -0.29981816615802    0.18541809920460
H          -0.34680939611422   -1.50836451796924    1.41697022311665
H          -0.90174950042133    0.14829515292976    1.68518307851723
