    23
        -45.35422769  Gyration_radius:  2.46099438346 Dipole_moment: 4.911
 S           0.88325010037978   -1.38961285450766    0.90051624256817
O           0.98754879596531   -0.96996756765524   -0.47901553095783
O           1.94375317018135   -2.17264852824569    1.41684955289593
O           0.62147202811378   -0.13305045729886    1.77329099442415
O          -0.45435418411838   -2.14641522709420    1.07853595787339
H          -1.17262035779441   -1.62743857839702    0.61444196321234
H           1.40777681210365    0.49419431763096    1.68830869878652
O          -2.29241953499842   -0.92149492045537   -0.28789391697546
H          -3.10793479552646   -1.41977070068777   -0.20816489936695
O           2.47747023621037    1.60192783734166    1.53388032244908
H           1.88116790869699    2.31358589076095    1.18387280079507
H           2.82795761594952    1.91377263666644    2.37078380099584
O           0.54357747886743    3.21135889609426    0.74552136389560
H           0.17322124629411    2.59148936679466    0.07569815700855
H          -0.12332416871885    3.27995767364937    1.43136565411902
O          -0.48535702858003    1.26935071627517   -0.77750996127906
H          -1.31104527777662    0.87082574097952   -0.48333757615622
H           0.16639752717077    0.54425161193677   -0.75264772725030
N          -0.98257267176361   -1.51181596538621   -2.49053842566599
H          -1.01542803246636   -2.41210898092103   -2.95166945967588
H          -0.97974670104961   -0.79252050283826   -3.20321292959815
H          -1.89341830504448   -1.14804620927791   -1.18818527986853
H          -0.09537186209982   -1.44582415536204   -1.99088980223110
