    23
        -45.37126148  Gyration_radius:  2.37051588336 Dipole_moment: 7.055
 S           1.13234467635256    1.26897462856900   -0.46113145703153
O           1.48060153796260    0.38552957777694    0.66233820366444
O           1.07243150977309    2.65147957866081   -0.10236526215163
O           2.24985919381326    1.07305681283195   -1.53679741211953
O          -0.11883310176490    0.78168214586349   -1.08594341189692
H          -0.50925856989244   -0.68237195027355   -1.24852325553048
H           2.25257957410734    0.10817488438821   -1.70360854014488
O          -0.72050032443020   -1.66849102309538   -1.29557287363083
H          -1.50817447197990   -1.73942031476515   -1.83710536934097
O           1.93311133472692   -1.53453345668221   -2.10450273873851
H           1.95122520720735   -1.58390506285722   -3.06274214301438
H           1.02442769053984   -1.74642019154163   -1.82707411587822
O          -1.94444962013720    0.41522543370794    2.49260674569578
H          -1.66084183003655    0.82556409074210    3.31127622718046
H          -1.88189801542999    1.12865798716931    1.80245886162632
O          -1.50823138270609    2.23016047729657    0.63848390289924
H          -1.26587661527422    1.69118722399444   -0.13612068779477
H          -0.72622903944745    2.79221225811236    0.73414552105241
N          -0.26455041159680   -1.31342601006249    1.36932953659945
H          -0.61971660220723   -1.68818365102427    0.47422386431800
H           0.53180380024274   -0.60610516294193    1.09302894977729
H          -0.99891105716504   -0.73824171229629    1.86164704790634
H           0.09908653745572   -2.05080654354058    1.96194842654265
