    23
        -45.37876632  Gyration_radius:  2.27425782882 Dipole_moment: 6.338
 S          -0.56048533309358    0.37180420545906    1.72578776513159
O          -0.49641957794886    1.80555426371984    1.46139602303571
O          -1.58230265600256   -0.30993144182996    0.97538316562458
O           0.76222374377287   -0.23604988283405    1.56971576334753
O          -0.93539842118637    0.22308541253711    3.25455406445445
H          -0.32395196325209    0.81135707147179    3.68633803356114
H           1.62482833830009    0.08772402907012    0.23620080458855
O           2.08381899341344    0.30714819282433   -0.61450344379519
H           3.02206467401398    0.22303066526622   -0.43880118085035
O          -1.62145177379161   -0.01381193310919   -1.69341229542145
H          -0.95046515656628   -0.71101156386214   -1.91814464515380
H          -1.85698144224167   -0.19230882854673   -0.76237388468964
O           0.43356540500068   -1.65584368808763   -1.85117212046438
H           0.27097409780573   -2.19646088064171   -1.04883551789757
H           1.15906215889114   -1.06361798189825   -1.61069171265845
O          -0.07923711169607   -2.61474503708781    0.62500808949762
H           0.35774306401952   -1.86565832317054    1.06644861015094
H          -1.01752765218116   -2.42310924815270    0.72036218697473
N          -0.04806298361661    1.92447959345570   -1.09799246206704
H          -0.26415941266506    2.02154044656436   -0.06176179813063
H           0.89858550850426    1.51861430295916   -1.16323077451670
H          -0.76080983755277    1.17703046009689   -1.47558630660746
H          -0.11561267154066    2.81118018603320   -1.58468837400032
