    23
        -45.37871379  Gyration_radius:  2.3296674013 Dipole_moment: 4.103
 S          -0.82419105101149    0.84091252516769   -1.50768624180510
O           0.63264715147392    0.73104365838526   -1.60085000463147
O          -1.47816982787233   -0.43037035982380   -1.31624501704922
O          -1.20563129441805    1.84982395572334   -0.52568310547718
O          -1.31356379160444    1.38245138880146   -2.91572161024971
H          -0.91928506674692    2.24651063237408   -2.98822363891466
H          -1.93123514522606    0.93381800284292    0.74653685220595
O          -2.08275255309256    0.08756536893804    1.21693609993030
H          -2.17883532149595   -0.52475165247679    0.47099722576916
O           0.73978963151628   -1.91267163931739   -1.53947501125485
H           0.97332566166550   -0.97472504951053   -1.67562410013107
H          -0.22746355835895   -1.87779198353554   -1.56330023512097
O           1.48226272760263   -2.33418552889393    0.93151979154182
H           1.17452295677671   -2.26250873723818   -0.01585089945115
H           2.43501877846096   -2.42708230475577    0.88523867881647
O           1.19798750247623    1.87167258803037    0.67533826805480
H           1.25928918803600    1.44262648556178   -0.20722812972886
H           0.36096084170491    2.35175839174401    0.59383706435892
N           0.38902223669100   -0.20606404325946    2.09161095562691
H           0.82331324529231    0.64295198451565    1.61779206692647
H           0.51218548789059   -0.17045635585899    3.09766656470730
H          -0.64698383416535   -0.18095516860780    1.83720673246203
H           0.82778605458629   -1.07957213901271    1.69120770351976
