    23
        -45.38328193  Gyration_radius:  2.28395262237 Dipole_moment: 2.030
 S          -0.93417010568723    1.61407270753211   -0.26793325304088
O          -1.17037465648902    1.27745515577549   -1.65471332690717
O          -1.65779414972939    0.73673236728191    0.64725755959806
O           0.47790388191351    1.69014960142432    0.07569400681560
O          -1.51797870943932    3.07156508933546   -0.06537724528054
H          -2.16900849742413    3.11902961791376   -0.75763716229048
H           1.52525819645394    0.57731814001329   -0.51612933942961
O           2.10744762594477   -0.15481793036088   -0.83116573550362
H           2.95279683641074    0.24837087020931   -1.03430243652889
O           0.44548144588486    0.58729909191875    2.50626948256137
H          -0.51119601991669    0.54235539984659    2.59249829285148
H           0.58209016371969    1.12496254697776    1.70304373490330
O           1.31375936730111   -1.66870936342243    1.35748031862917
H           1.10920775685575   -0.91248031340236    1.95456448946074
H           1.83359758711753   -1.28195585437247    0.63291111793059
O          -0.06182808666813   -1.04264953480183   -2.30682151267482
H          -0.50981309994319   -0.17023510472818   -2.27102943641537
H           0.85593665764793   -0.86161309470874   -2.04653846764411
N          -0.95719658653549   -1.72834440589974    0.06180907817955
H          -0.06428778385283   -1.86030574732877    0.64147025894851
H          -1.62025741977144   -2.48222259180008    0.20001583593955
H          -1.36525659103180   -0.79530552158522    0.33704201682145
H          -0.66431783249958   -1.63067114584402   -0.95840826659846
