    23
        -45.35662513  Gyration_radius:  2.37873202572 Dipole_moment: 7.238
 S          -0.75789298051598    1.76207841332929   -1.36611293916119
O          -1.48203116440793    0.70718789604186   -2.03453032224758
O          -0.91869119481267    3.09164254717636   -1.81579980061078
O          -1.10089500519467    1.68570233052305    0.15564289283459
O           0.75426995396608    1.39294277730868   -1.37519509769415
H           0.83033879898585    0.42219154974744   -1.65737232482899
H          -1.62912789260010    0.83037489692070    0.31316701246442
O          -0.14442275789220   -2.11601511810799    0.29786780027265
H          -0.14836823691351   -3.05322351523795    0.49733247068956
O           0.55259636676749   -1.04007605826308   -2.08170178000418
H           0.36533288515980   -1.53272233218981   -1.25583059347709
H          -0.30782922453852   -0.77583185701249   -2.44041590353200
O          -2.32791188216580   -0.53248558703017    0.18603810096899
H          -2.43947985857653   -0.39626894425029   -0.76689890058912
H          -1.61241819450236   -1.19479823122215    0.28760508682078
O           1.42602439572778    1.80098346891424    1.34621055205149
H           1.84418508896336    1.92049971279262    0.48819551011382
H           0.48829639087131    1.97535096372444    1.18993377609296
N           1.38217480978133   -0.96483953869184    2.07842868713620
H           0.45483769828860   -1.67009119897461    0.99025794375456
H           2.33173370247399   -1.31607370906091    2.10360515567418
H           1.43365575587610    0.03168183051093    1.84306943722181
H           1.00562252525606   -1.02821029695952    3.01650321604927
