    23
        -45.37063880  Gyration_radius:  2.35635447224 Dipole_moment: 5.953
 S           2.23192993730354   -0.07242441479586   -0.40405226652339
O           1.63723940581951    1.23070332269778   -0.69333944983642
O           3.46270371434833   -0.35097679001492   -1.06849928840425
O           2.56419574686989   -0.00340880047779    1.16740514662560
O           1.21911410003073   -1.12627607871858   -0.53252325363922
H           0.30691799345204   -0.56801729359793   -1.81920886531928
H           3.35100658433783   -0.53428506685873    1.23420233559772
O          -0.14264858087688    0.11742290218055   -2.36700632046357
H           0.47512965345627    0.85867866345885   -2.29526271264315
O          -0.16325089987868   -1.19881275808417    1.71585187981603
H           0.41282995543170   -1.29760923102811    0.92693227434009
H          -0.10174937575739   -0.25990926614748    1.93409263572660
O          -0.07807590141117    1.58536512716967    1.16971429118268
H           0.63906515547841    1.44558713179168    0.48618418737668
H           0.18630473012416    2.36001896412008    1.66730934120236
O          -2.44698023818386   -1.63759799788597    0.54530519733868
H          -1.63357100970404   -1.55991596408764    1.12170964922132
H          -2.29054984973414   -2.40039193671194   -0.01441375959871
N          -1.95169467313424    0.70127280542044   -0.55991388063461
H          -1.37174525170122    1.17171062136504    0.16779478817593
H          -2.27415792800638   -0.23111404480409   -0.15904805246206
H          -2.73639877679493    1.27875049281888   -0.83967438649130
H          -1.29561450150700    0.49122962222231   -1.38355948060667
