    23
        -45.38139725  Gyration_radius:  2.27222883913 Dipole_moment: 2.627
 S          -1.68698405377148    0.38022772888568   -0.35821189081337
O          -1.46997801701580   -1.01431843551897   -0.01074604782205
O          -1.61000404313318    1.27267270977494    0.77551593069344
O          -0.81182542546898    0.79860263597101   -1.45328321960710
O          -3.16628976905291    0.47585268640113   -0.91223780686927
H          -3.18888211446108   -0.20354698323187   -1.57855111912566
H           0.34435704462708    1.65939913248539   -0.63152157201070
O           0.93601255169760    2.06054949729609    0.04464576448398
H           0.32080379577107    2.51066776281433    0.63264592013926
O           0.98742124436212   -1.95633753760170   -0.41281091624644
H           0.02851644804442   -1.78443265927678   -0.29606942113399
H           1.18084469780604   -1.62907702273644   -1.31389871109892
O           1.10973231871836   -0.55166935263371   -2.70673101710670
H           0.33813596275064   -0.06098989337660   -2.35657244685235
H           1.75214093499318    0.11355740900151   -2.95899883752099
O          -0.72209777044162   -0.39675677554578    2.58504835776665
H          -1.07880032822161   -1.18940552113179    2.16867757160084
H          -1.13971403462884    0.33104755428443    2.07090447967769
N           1.61006450529231   -0.15891938897621    1.35890066489058
H           1.50612583365806   -0.94545752266635    0.62914568842285
H           2.49067678229887   -0.21088762082275    1.85781410756969
H           1.49286646475999    0.76318783690878    0.85814129113136
H           0.77687696140983   -0.26396623029461    2.00819322982921
