    23
        -45.35352832  Gyration_radius:  2.37091066343 Dipole_moment: 6.969
 S          -1.11227710812133    1.07542405265106   -0.82296389362115
O          -1.62610799976650   -0.19410936112500   -0.38001403932203
O          -1.97750172028233    1.94391610291651   -1.53066008605238
O          -0.50008402559404    1.84616736627261    0.36959571025370
O           0.14619615953309    0.77560651537710   -1.70177476203168
H           0.45710913945342   -0.17564450324996   -1.57973210458847
H           0.09625669804326    1.26857461921137    0.92353075349196
O           1.08987556530833   -1.60961659503325   -1.36963611919587
H           0.68566986714074   -2.19889069874950   -2.00872028408970
O           1.29973827070670    0.50725035140987    1.68537033076677
H           1.66371153170737    1.12812310814998    2.32023821020183
H           1.95187535040522    0.44749773543072    0.94166533801576
O          -3.49356743984312    1.48577239099057    0.82679917551250
H          -3.38164982711325    2.07986210259905    0.07972602359774
H          -3.08663322629608    0.65892838265827    0.55150377998575
O           2.78516568888524    0.42333313206435   -0.50909680107080
H           2.56042278820371   -0.44625977752654   -0.86865348248482
H           2.34649345407841    1.05847448626705   -1.08450474546174
N           0.00358473657976   -2.09176336518484    0.93936906040010
H           0.71882562588344   -1.87720812203158   -0.45683453303705
H           0.47569691302494   -1.54299541114022    1.64856612479350
H          -0.84063053896735   -1.58197628013957    0.68374358480349
H          -0.26216991299129   -2.98046625182607    1.34248277908393
