    23
        -45.37493155  Gyration_radius:  2.3974912717 Dipole_moment: 1.893
 S           1.68515993974812   -0.67807244442139   -0.48302049288632
O           0.50001423959481   -1.08714469959751   -1.22597072256765
O           1.93466126816747    0.74097248747806   -0.55963280172978
O           1.64070016198270   -1.17558435689232    0.88891055450891
O           2.91348667611311   -1.39224070486786   -1.18650729383658
H           2.64730408425603   -2.30585674860100   -1.23967474764541
H           1.08133803298317    0.25893824386101    1.70564947486016
O           0.54051180364974    1.06240966715691    1.83602458282997
H           0.96701137482166    1.72987254585913    1.29027420413347
O          -0.10750676771936    2.18548261774796   -1.43851074169750
H           0.63461924423469    1.61275592757792   -1.14694829106367
H           0.27824430655199    2.81849745957059   -2.04537221684245
O          -0.58474069861033   -2.34607346531191    1.88653376748163
H           0.26037717498543   -2.02764532213287    1.51014080592426
H          -0.40503866446114   -2.53082904054504    2.80940127665083
O          -2.69949394807516    1.39489248227600   -1.24332704934395
H          -2.89299636319571    1.01441415825294   -2.10184541886089
H          -1.82158810776960    1.81748633919314   -1.32881376906835
N          -1.35045748601005   -0.21630250288983    0.42128563450428
H          -0.69326249941678   -0.58912783841200   -0.31920387098892
H          -1.62835663067427   -1.01818630342213    0.99993504039311
H          -0.77944606359266    0.43043699812787    1.02027110079670
H          -2.12054107755803    0.30090446999146   -0.04959903555190
