    23
        -45.37985881  Gyration_radius:  2.25831264414 Dipole_moment: 2.612
 S          -0.08734882921110   -1.75263815626519   -0.70315966347275
O           1.03239809345649   -2.20839273818603   -1.47392542472324
O           0.14380337989813   -1.76089217703603    0.74016148239432
O          -0.61890319231785   -0.46190662229289   -1.13184473037429
O          -1.28151908594339   -2.78235445641269   -0.95690699273207
H          -0.83781040917658   -3.59700545268515   -1.17246168530345
H          -2.37497848231030   -0.44675081205865    0.34444730860464
O          -2.05283554361531   -0.45120921416014    1.25117226794467
H          -1.27997601741171   -1.06086716027211    1.21555536065300
O           1.72349778573646    0.28087380578254    1.37545764737439
H           2.03740000405080    0.46185247315950    0.46775587707022
H           1.27069282228388   -0.58564512620970    1.30185360060599
O          -0.45013089123453    2.23879733406578   -1.16724250598733
H           0.46560506325316    2.27999574461559   -1.46245137255241
H          -0.71717406246156    1.31699177830482   -1.33484813360680
O           1.90628657189828    0.45180987303410   -1.32893944253637
H           1.01838921961996    0.05047381342045   -1.36746511642607
H           2.48290160055984   -0.23213095060774   -1.67928581921810
N          -0.48444258876283    1.68243116260568    1.43952023200249
H          -0.64019371210371    2.37580671031906    2.16191006537143
H          -1.21079387376806    0.90936774558426    1.46919565808129
H          -0.51208110889995    2.09607017378628    0.47148113969635
H           0.46721324645338    1.19532225148982    1.54002026712371
