    23
        -45.37876650  Gyration_radius:  2.27428004545 Dipole_moment: 6.342
 S          -0.49994434530306   -1.71728317978927    0.48155673983628
O           0.70051155300197   -1.86155243194221    1.29875660786253
O          -1.42845888647245   -0.73894508377670    0.98423999368004
O          -0.14000057549643   -1.49365498944140   -0.91981439009633
O          -1.23448216692754   -3.11660059697637    0.52954861252028
H          -0.53591037485671   -3.73489697566776    0.33959977793597
H           0.96616192249529   -0.36493934147720   -1.27954199209773
O           1.62771033411554    0.35818545810082   -1.42771639677401
H           2.07309365495128    0.14600233225337   -2.24921621939056
O          -2.20513592060369    0.12353073699341   -1.53531693006089
H          -2.63982309419239    0.04620053515399   -0.68019841845816
H          -1.49076611637800   -0.53603938189218   -1.49445365653340
O          -0.52202838945463    2.19895043534770   -1.11826513129565
H          -1.24067921152919    1.58942812104408   -1.39110615171647
H           0.29572996729919    1.75446135608005   -1.38024010264118
O          -0.52630874495229    1.74179514051408    1.47695718758667
H          -0.60236368426162    2.10133586671221    0.55405362788755
H          -1.04540141294419    0.91444064266043    1.46074766084455
N           1.72697947188426    0.52837481968378    1.28423431518143
H           2.49065775902161    0.75688292209064    1.91054464220766
H           1.99438713436610    0.63519020321946    0.29313962393214
H           1.40194439839966   -0.47668431899249    1.40276286722546
H           0.83412673786177    1.14581775011418    1.45972774236589
