    23
        -45.36579466  Gyration_radius:  2.62666820867 Dipole_moment: 8.477
 S           1.73916752508472   -1.17399928532996    1.53799923138566
O           1.67318507482484    0.27253112808677    1.67874296311769
O           2.80772248492129   -1.83341231800471    2.21676734939703
O           0.38700006264888   -1.71876049747256    2.25103543896174
O           1.58101558591312   -1.56439378174681    0.13141599748296
H           0.12721307081652   -1.94986012863521   -0.49495326749602
H           0.74623367341844   -2.48781573156155    2.67923975695690
O          -0.71853068062416   -2.04821229824407   -1.00032516969111
H          -0.50582438320766   -2.60984269196409   -1.74712170071153
O          -0.88150094852728    0.72896131033846    1.77360721803958
H           0.10574938282448    0.67125437278921    1.82590271053198
H          -1.17551141452978   -0.10929168304953    2.14082184814601
O           1.77799642920401    0.80921229842020   -0.97180847213816
H           1.84443530429571   -0.14718440108872   -0.75368666688729
H           1.99135855143290    1.21876014100215   -0.12287201410626
O          -2.38785762833616    2.58477048872883   -2.24904907197665
H          -1.95515141469645    3.12846937522966   -2.91090327310654
H          -2.93936680354256    3.16111990238921   -1.71563037583073
N          -0.86721876587706    0.62785089518892   -0.87531489756121
H          -1.01845935922125    0.74894593739463    0.16413690404364
H          -1.47523192420406    1.24382564056924   -1.42351256722021
H           0.15863174343942    0.82880340733223   -1.04615033016473
H          -1.01505555607650   -0.38173209038596   -1.08834161115548
