    23
        -45.37734824  Gyration_radius:  2.29327404694 Dipole_moment: 5.440
 S          -0.98395302694454   -0.24999087408139    1.05960134936925
O          -1.27751781219843   -0.85290270544359   -0.24248058166595
O          -1.67649643646478   -0.88027851569297    2.15219753068237
O           0.58390273165426   -0.51627088343851    1.28244173536716
O          -1.09181803066953    1.19663708927413    1.00353020095888
H           0.36845624110809    1.88266167260067    0.78280037443797
H           0.58448554955309   -1.43444770337790    1.62273371401473
O           1.30036038676405    2.09266243705675    0.51998578874389
H           1.82518346467211    1.45620914612464    1.01238790711860
O          -0.04196044705132   -2.88087318125959    2.23245541748664
H           0.11933221136258   -3.15323449813003    3.13854237665683
H          -0.86080202236132   -2.33309376465691    2.25384798395842
O          -1.77284053231716    1.32360185392315   -1.62510567361600
H          -1.76917067500709    0.40597986635113   -1.27114640977038
H          -1.87476218534142    1.85272301246572   -0.82325415383060
O           0.94070935683769   -1.32880269171120   -1.52910662160400
H           1.52708459071541   -1.66953426913215   -0.85053138768284
H           0.04939906415054   -1.28221731270811   -1.10087612544953
N           0.83436208065920    1.28922234497968   -1.95175950494158
H          -0.23018531792880    1.39707143067495   -1.97043635860009
H           1.01687431951272    0.25026938740698   -1.91618968859842
H           1.27589975379500    1.72963664160038   -2.75068900482997
H           1.15345673549515    1.70497152717783   -1.02894886820151
