    23
        -45.38002662  Gyration_radius:  2.29651121547 Dipole_moment: 2.947
 S          -1.02338363498967    0.89421773269242   -1.37092732321345
O          -1.00760342447929    2.18090140243589   -0.69869497112468
O          -1.87703642355747   -0.06960186944410   -0.70646431984021
O          -1.65247262761240    1.13025867652567   -2.80682303845541
O           0.31624117982325    0.37742796267832   -1.61624965949447
H           1.55011510465879    0.64464490809357   -0.43163452076251
H          -2.55632534459774    1.31292048556247   -2.57499279784572
O           2.02330682467463    0.62441173403399    0.42624152503729
H           1.50072258852959    1.21106799557843    1.00021827863554
O           0.52606343398009   -2.22920037079607   -1.56406246413509
H           0.31558695438422   -1.26914342845620   -1.66009160998133
H           1.19081102897274   -2.41583424597705   -2.22943251217882
O          -0.03638855648420    1.93163407083937    1.67457969085007
H          -0.14674451435945    2.76376652928302    2.13719030097549
H          -0.42927056598736    2.07002002248339    0.76938997171748
O          -1.19533315589142   -0.56347186710290    1.77826243017423
H          -0.86600424003261    0.32556668275938    1.99509549171771
H          -1.59717063112458   -0.45913764173088    0.88374669035885
N           1.01106046856285   -1.72492463957209    1.01766174221270
H           1.58859583341709   -0.84148420027878    0.86522185001010
H           1.46405911338835   -2.39132562744090    1.63153542779618
H           0.07274635192760   -1.37757097679772    1.41345128828531
H           0.82842423677271   -2.12514332535514    0.06677850923817
