    23
        -45.37628293  Gyration_radius:  2.37940438039 Dipole_moment: 3.648
 S          -1.32292321478929    0.15629514434377    0.56124265777271
O          -0.54696972973756   -0.23665794847416    1.73669877895067
O          -2.70793054411275    0.42171794488513    0.84145176875281
O          -0.65832116830315    1.51846836699606    0.05876246438167
O          -1.09085076720339   -0.77231498232634   -0.53884993370902
H          -0.11942107858402   -2.10921141528774   -0.56878362266720
H          -1.07944118055377    2.18213547304221    0.64703627827734
O           0.58990250243901   -2.79493414441605   -0.52608072475011
H           0.18412639209074   -3.56733287585512   -0.13029071321356
O           0.53867740227267   -0.46665793694668   -2.65012102038867
H          -0.19533912693084   -0.47422541767688   -2.00483012690772
H           0.82505565992175   -1.38065802531093   -2.71858970285345
O          -2.23328439075094    2.82556560838185    1.69120100017655
H          -2.62115595289743    1.92748834323417    1.59311472403233
H          -2.87560844503652    3.43746211182349    1.32419573843968
O           1.89554133306134    1.09694827267973   -0.98068771619127
H           1.56200650777679    0.60059559697706   -1.76333784733105
H           1.11889575404603    1.58494961723666   -0.67126027693480
N           1.78278318788643   -0.79862323080511    0.83312467142858
H           0.84603950015699   -0.54412600454135    1.31206837425957
H           1.59850229153314   -1.69187821097390    0.33252699787075
H           1.97349558257382   -0.02866355266262    0.11569579181674
H           2.53621949513385   -0.88634272426782    1.50571241882612
