    23
        -45.37126171  Gyration_radius:  2.37034294631 Dipole_moment: 7.035
 S           1.06796490431685    1.06449963500535   -0.90736947931927
O           1.58148576944152    0.43175963996722    0.31717962255365
O           1.09343007375755    2.49319766522969   -0.86514288001166
O           1.98687416368791    0.57557518405784   -2.07355311235877
O          -0.27848161178742    0.52189964306440   -1.20027260930873
H          -0.71718799687973   -0.91799662290180   -0.96053462574632
H           1.94560501349844   -0.40089138886855   -2.01379037244729
O          -0.95182057538096   -1.87621233606703   -0.74643804282027
H          -1.81878978875979   -2.02245257154235   -1.12819443496321
O           1.53427436886619   -2.07121293877147   -1.97174537491423
H           1.39208882769125   -2.33594163812141   -2.88319423238589
H           0.68133251424684   -2.16634131383986   -1.51258693285374
O          -1.50327289452340    1.07547429758020    2.59665757175145
H          -1.08148735810580    1.64434768695169    3.24279018682043
H          -1.54338084898913    1.60972081062736    1.75837666931497
O          -1.34679268640781    2.39761310701806    0.32839190489136
H          -1.23783638121604    1.68449913273467   -0.32681464002485
H          -0.54991673548414    2.92451048357812    0.17365344853853
N          -0.06264356237494   -0.95460991874776    1.66125666760390
H          -0.56603605004404   -1.50114105905284    0.94310408145998
H           0.69351922568249   -0.37654117099939    1.10915511778237
H          -0.69518985055769   -0.24118845608723    2.11241989278740
H           0.37626147930242   -1.55856788079123    2.34665157364801
