    23
        -45.34775466  Gyration_radius:  2.70835583148 Dipole_moment: 2.573
 S           0.28217986853413    2.20413490038040    1.07677422512662
O           0.01930126457359    2.81531724368786   -0.18277891690924
O          -0.64507870240820    1.25086234543787    1.59228777287735
O           1.70095880128841    1.61597535954840    1.08333307018855
O           0.39193422388722    3.36751279873001    2.14913504433153
H           0.71263201673195    4.14132747761206    1.69007975803664
H           1.71128258157772    0.73970023566809    1.62767523666717
O          -0.30815261703115   -1.30149017217650    0.64694353810919
H          -0.89130863652114   -0.62779935680426    1.02099647354559
O          -1.24186381938086   -1.16383943697175   -3.16137761970958
H          -1.45337753114671   -1.83119316728561   -2.47786296972432
H          -2.07115919444986   -0.73141224856297   -3.36996739320233
O          -1.71277768455392   -2.88234073158156   -1.08085512413034
H          -1.23921513070778   -3.71233300219465   -1.15376930972397
H          -1.26698548862695   -2.37531546868608   -0.37217439751835
O           1.49874084788236   -0.53426126827252    2.38899031092729
H           0.89764635314915   -1.00698088097362    1.74932161571862
H           0.94298459762284   -0.29634976026776    3.13583894836177
N           0.59205991715794    0.13502778749754   -1.33480082250843
H           0.33177547833298    1.09936788907942   -1.16069688716775
H           1.57597359134643    0.11717807175230   -1.56822609173731
H           0.10326548466015   -0.82530119964906   -0.15153410716165
H           0.06918377869748   -0.19778744586520   -2.14733235446911
