    23
        -45.35094048  Gyration_radius:  2.3762331648 Dipole_moment: 8.131
 S           0.15005506061132   -1.56793591352375    1.72203186961079
O           0.97128969353029   -1.16581798264192    0.60972284260364
O           0.80748063030038   -2.06029200553369    2.87313923473834
O          -0.76943657241879   -0.34531235641498    2.08373589967186
O          -0.89724314853825   -2.59671712638324    1.23730491779478
H          -1.43582004514786   -2.11949106932234    0.55354503772611
H          -0.41101156896793    0.48958938163650    1.68475740871326
O          -1.02467689619088    1.04911800147656   -1.43745970215562
H          -1.35629477053177    1.53248401505642   -2.19535820474868
O          -0.13448630673055    1.91603029305178    0.92597474163082
H          -0.43968602129595    1.67475859848875    0.02064960207105
H          -0.72962780487947    2.59103076342899    1.25807071811779
O           2.55736970358990    1.10442492447863    0.17796634598387
H           2.24208329048110    0.22056992712442    0.41491474133267
H           1.90370099962818    1.70144067316811    0.55352305075728
O          -2.31716598997686   -1.03891891572333   -0.29168361164432
H          -2.81837919871739   -0.61983838756734    0.41194772052970
H          -1.83338151234571   -0.32143459975029   -0.75325362293530
N           1.17968646168242   -0.12749926989069   -2.05910362887242
H           1.14584667245686   -0.85230381568687   -1.34521592542174
H          -0.15537428515721    0.58458964801722   -1.74364101329727
H           1.92223881754078    0.50246952624948   -1.76214387978151
H           1.44283278108934   -0.55094430976102   -2.93942453240825
