    23
        -45.36074896  Gyration_radius:  2.33208837302 Dipole_moment: 6.722
 S           0.70166054855172    2.17941619048870    0.33133976125703
O           1.24210941320218    1.36941194841347   -0.73574608860751
O           0.89368673487254    3.57724114024162    0.24355798168857
O          -0.82179485399768    1.81926401688444    0.44236969662435
O           1.23491811297752    1.67407997019296    1.68598914282841
H           1.11643619137858    0.67988747275210    1.77397381766984
H          -1.10586872220255    1.61664021853755   -0.51192167216253
O          -1.28193161210482   -1.53251278186204   -1.28896300654401
H          -1.55072008448516   -2.31609272323422   -1.76921696162783
O          -1.69637156626412   -0.71205836499512    1.28788240345563
H          -1.72198351147410    0.24750473715774    1.17383817222355
H          -1.71263343294831   -1.08399920992236    0.38629001283413
O           0.79006692454970   -0.84487404674564    2.06656857557538
H           0.81699841530639   -0.95147217368439    3.01969187601068
H          -0.17506459605435   -0.88821608340682    1.80654309585428
O          -1.14515990506706    1.08964341644480   -1.96026415316009
H          -0.18241385008639    1.16980515411244   -2.03528530117648
H          -1.32739082405380    0.13349835536399   -1.85054549705822
N           1.29685039045876   -1.48394019327488   -0.81687078210110
H          -0.28245829662699   -1.59600201644738   -1.14272475020443
H           2.00465251705262   -1.93602179754931   -1.38162881797311
H           1.44654812528841   -0.47588648077435   -0.87677386320546
H           1.45986388172773   -1.73531674864486    0.15189634782066
