    23
        -45.37974548  Gyration_radius:  2.28712653999 Dipole_moment: 2.529
 S           0.00894257485991    1.41204255543894   -1.18986419924038
O           0.19716932006017    2.34526419841387   -0.09684938901490
O           1.18913998643675    0.57091487552396   -1.38161095398713
O          -1.20499052080111    0.63063189754788   -1.08900329267858
O          -0.12635139172338    2.29308736849480   -2.50155403282334
H           0.51724912003726    2.97092549333156   -2.32536304797650
H          -1.39454460306246   -1.01546094479450   -0.62810126591618
O          -1.23116117258592   -1.87372829887437   -0.18366413160757
H          -0.38785479474239   -2.18047254894260   -0.57149147058639
O          -1.74486995128657    1.57822360749706    1.44142809353491
H          -2.29160466416375    1.27921607795316    0.70579407154156
H          -0.99405077343785    2.03034051268610    0.98711504893447
O           1.97908699534502   -0.30345414340175    1.00596581164219
H           2.24448461293285   -1.15424687722733    0.64019007671301
H           1.77138246367217    0.24303829221496    0.21970536004337
O           1.23201323156072   -2.06504790361064   -1.28998685792930
H           1.22463985119726   -1.08628614035172   -1.40694960777060
H           1.35919061653436   -2.43419735376687   -2.16473816966270
N          -0.46924162149203   -0.65984122649150    2.00119148057986
H           0.54277090863433   -0.47810077417349    1.76881936074909
H          -0.84605726860892   -1.28643379967804    1.21669331257278
H          -0.57576966727942   -1.07777086295603    2.91827677046352
H          -0.99957325208560    0.26135600516836    1.92399704241918
