    23
        -45.36986425  Gyration_radius:  2.511983225 Dipole_moment: 3.185
 S          -1.85008896506716   -1.15154488373178   -1.03782796384919
O          -1.20954741724613   -2.29523913194016   -1.63228356866167
O          -2.11093597223925   -1.23880263587187    0.38046517716007
O          -1.12667184921039    0.10719439411326   -1.33727431278330
O          -3.26166121814946   -1.00367997025509   -1.76174881287248
H          -3.14339316859065   -1.50793255499988   -2.56127967429085
H           0.40314874062679   -0.58491811341439   -1.14551658101717
O           1.12867752030004   -1.17026494159028   -0.84181674776931
H           0.86747521049647   -2.02626597411283   -1.20148167935495
O           1.53870783147802    2.76173235681103    0.49337877228113
H           2.14506090282062    1.98516339744030    0.53874389929896
H           1.66023772618514    3.14209976847734   -0.37808902703762
O           2.87205014977676    0.45106747840892    0.52929310988396
H           2.40830210438315   -0.12832082480279   -0.09854689687296
H           2.83040272668817    0.00800636583265    1.37982247679025
O           0.15605717314024   -1.08163684389415    1.72350001502061
H          -0.73905637074551   -1.38259221637984    1.46506645154395
H           0.69521761320018   -1.27538483793294    0.93455871828716
N          -0.66270045040977    1.30699453505288    0.92577449745296
H          -0.95901045557797    0.92554898609183   -0.02414469838159
H           0.11571450004717    2.00092564606678    0.79725016979109
H          -1.45942001885814    1.70440081634776    1.41047300902757
H          -0.29856631303357    0.45344919427381    1.44168367634190
