    23
        -45.34767818  Gyration_radius:  2.60320672171 Dipole_moment: 1.553
 S           0.39114519015669   -0.94597105205317   -2.43870320632049
O           1.03204789133579   -1.79611470298242   -1.48577982107081
O          -1.01259651633806   -0.74509210513006   -2.29774931106713
O           1.12880492001871    0.40703021820315   -2.52933217254352
O           0.67033750336974   -1.51811689877318   -3.87432923691599
H           1.57410897849904   -1.82638258803691   -3.86606062921938
H           0.92686316984422    0.93725611049904   -1.68481515682084
O          -1.56191458021791    0.13238469216723    0.22233853811611
H          -1.70126637283333   -0.20996566769035   -0.67315451378893
O           0.47162845731731    1.61832625620440   -0.40329487431714
H           0.16542370261128    2.51953947319991   -0.52911580018728
H          -0.33218325955608    1.08595990543799   -0.10529393691836
O           1.24909967011889    0.84340394974340    2.30383749579511
H           1.45745338827669    1.14393769442358    1.41330525158027
H           0.40045462728468    1.26728582335604    2.51556552997776
O          -1.38414137603054    1.81290292849706    2.42428566688957
H          -1.89831013544315    1.49062058440251    3.16568754013211
H          -1.65112220013750    1.28472212597768    1.65610938786563
N           0.04903523183234   -1.60461009351975    1.31025927556666
H           0.54078146039444   -1.88794812671322    0.46755087246330
H          -1.05320935091561   -0.60082399295798    0.70285480548353
H          -0.12479425457674   -2.42799761877959    1.87060445743520
H           0.66235386497359   -0.98034690544926    1.83522988788131
