    23
        -45.37059393  Gyration_radius:  2.45428345331 Dipole_moment: 2.852
 S          -0.88810897955702   -0.78659742524719    1.77612893571397
O          -1.95333297237789   -0.20267513580292    0.98048520243039
O          -0.16310067854967   -1.81057453278502    1.02509018723352
O          -0.00151134195051    0.19384622744079    2.37135493124669
O          -1.59217228354749   -1.52178702836763    2.99793019629423
H          -0.99870721233572   -1.33180499290553    3.71765837937234
H           1.37324358080206    0.26022680895012    1.32271586948358
O           1.82286655608058   -0.14279818746965    0.54930178438441
H           1.45685816318375   -1.04473378980124    0.58157191374829
O          -1.55882534495412    2.11752333181768   -0.17225979354039
H          -2.42218078970834    2.50617724111632   -0.31888183849649
H          -1.71223107578931    1.31332292753691    0.38004265298632
O          -1.29634513740603   -1.53095946446093   -1.32390355286417
H          -0.83125059392511   -1.85018057210730   -0.51696400028991
H          -2.10809809027387   -1.15987715768141   -0.95884959115092
O           2.95786335306364    0.73181421731249   -1.95946103544491
H           2.89980719250950    0.43005500627890   -1.04270323387511
H           3.89001866916378    0.77281968623075   -2.17549019435678
N           0.22323393652984    0.62654361281771   -1.47806379478348
H          -0.36406087668353   -0.24566340365969   -1.62368614628411
H           0.80021824849783    0.86817293813841   -2.28142906919010
H          -0.40998559925418    1.39529527570771   -1.17277519349376
H           0.87580129651286    0.41185441691123   -0.67781259909385
