    23
        -45.37436755  Gyration_radius:  2.41610309951 Dipole_moment: 3.694
 S          -0.92033609679077    1.19604578826107   -1.42698382168722
O          -0.59046577350915   -0.10415075820321   -2.00069226227572
O          -2.05004007553952    1.14708828933480   -0.52611934647365
O           0.25725455455033    1.82273777014670   -0.83490166684411
O          -1.36203307738362    2.12390748540038   -2.63607029441412
H          -0.60444134902907    2.13829339708284   -3.21332937124886
H           1.38960643359039    0.62525940013287   -0.70015684127645
O           1.74846506724909   -0.29401066195027   -0.66999333778831
H           1.27848289233039   -0.71546269163010   -1.40208231691458
O           2.69941246741821   -1.73102756387625    1.64314678019685
H           3.60187930541298   -1.98104281493781    1.84375818580934
H           2.72424898765276   -1.26016982050878    0.79958851117356
O          -0.77266525473832    1.58326818490053    1.72395883278097
H          -0.07071514328123    2.10462197069479    1.31798871521780
H          -1.43616816574841    1.51179339618349    1.00244907359586
O          -1.95133941903167   -1.58112999878730   -0.28784268786337
H          -2.62928817607685   -0.91813575223860   -0.11398785762499
H          -1.47294012524707   -1.20647027040299   -1.05974035033673
N           0.02866396743518   -0.91065915311365    1.33623306213937
H          -0.79514813736208   -1.34824760226479    0.83711688188848
H           0.76785407448687   -0.74081915276550    0.61021807258035
H          -0.26994756771687    0.03931580599132    1.69668508602408
H           0.42966061122865   -1.50100524746127    2.06075695334822
