    23
        -45.38252909  Gyration_radius:  2.27582625146 Dipole_moment: 2.961
 S           1.17061315484076    0.04507239016062   -1.50724993405816
O           2.36002950002360   -0.32346844531918   -0.75100523744980
O           0.16428033820632   -0.99300769238775   -1.53510293111965
O           0.64230138668385    1.33275092821179   -1.06621251550280
O           1.64222355268235    0.24567313554069   -3.00611467726152
H           2.39555720124310    0.82207771122822   -2.92245482438199
H          -1.06565892018849    1.24664593277743   -1.44542704854614
O          -1.88794170589424    0.73074714412324   -1.54716986440455
H          -1.55122470640106   -0.12641989109914   -1.84548751417640
O          -0.70225458369099   -1.99756959978728    0.79610099812296
H          -0.44119943307409   -1.83784506710157   -0.13296036697619
H          -1.40122660134603   -1.34312899916358    0.97399036620583
O           0.06679866780443    1.55980832128373    1.54208718264316
H          -0.84734280721499    1.22450489527117    1.51415539179354
H           0.31504793453049    1.68308507991811    0.60298377694450
O          -2.29925147787315    0.24672391097151    0.99893335410413
H          -3.21057892386171    0.40800686389115    1.24557781123008
H          -2.23148516917020    0.45184848770923    0.02466971385829
N           1.40039611110749   -0.68870442590460    1.64631308072096
H           1.99808191994788   -0.98149949340202    2.41064687323558
H           0.60126333615961   -1.36890654089358    1.45856493863589
H           0.94826849708961    0.26291071005112    1.81029392212288
H           1.93330274836435   -0.59930537612539    0.73486750423821
