    23
        -45.35287674  Gyration_radius:  2.34268205852 Dipole_moment: 5.858
 S           1.19093607743941   -1.66775089825432    0.16346209867603
O           0.44950432035554   -1.49799663001346    1.38479246978022
O           0.52631671774353   -2.22245578244043   -0.95638789321394
O           1.83940899696384   -0.32945416868814   -0.21441371429379
O           2.42622696251506   -2.58318691980320    0.50696459481309
H           2.60976799607121   -2.47522455170962    1.43747089022498
H           1.70327006390957    0.32419906605914    0.59747759932517
O          -0.71986613895010    2.20887571638548    0.49313057080470
H          -1.30272589724098    2.94481811329327    0.68160955256790
O           0.35184785467094    1.41909784098470   -1.98935175224452
H          -0.00887338100974    1.86395609219787   -1.20672370744196
H           1.08773229375451    0.88529334720487   -1.67444423558822
O          -1.45391008064741   -0.65933398635914   -2.23535148362034
H          -0.84200441717521   -1.37970645403970   -2.03922733066722
H          -0.89318327430991    0.12206526007637   -2.39189204555715
O           1.25167702749303    1.04263876507263    1.77117403967486
H           0.56745268414198    1.64134730742469    1.37552712403939
H           0.76237262918258    0.29324124316539    2.14155386409808
N          -1.98122217588708   -0.06021095833654    0.46540159725578
H          -1.35965136420117   -0.73209254602145    0.90541891070564
H          -2.91286713464471   -0.20599537175201    0.83260448155004
H          -1.29282578614745    1.36236649225243    0.48637115710152
H          -1.99938397406488   -0.29449098669471   -0.53516679797776
