    23
        -45.37061027  Gyration_radius:  2.38436559741 Dipole_moment: 4.127
 S           0.33114528663371    1.03191995830870   -1.58569759198997
O           1.22086208946538    0.66059651586440   -0.47807522046258
O           0.79638620103608    2.12497034043161   -2.37292834870724
O           0.35392857380545   -0.25514142624002   -2.56387705978961
O          -1.04604156373486    1.10329904549259   -1.11598520410801
H          -1.72609557086537   -0.43506021887636   -1.16426166816469
H           0.81392591287928    0.09489946681246   -3.31968801679967
O          -1.81637168495981   -1.41169987043513   -1.09376244116519
H          -1.36591932981124   -1.75381926995958   -1.87002508770983
O           2.49756432006113   -1.69751377069606    0.20935493564996
H           2.24029720657327   -0.83199007948996   -0.14846369042588
H           3.45478892499524   -1.72131715614804    0.19811931721013
O          -1.25016874993749    0.37296655967131    2.85029870809353
H          -2.20486516521154    0.44058311608945    2.90370645647754
H          -0.94802217512437    1.18335846821137    2.37254663209176
O          -0.43542823162592    2.28915059150319    1.19295055383547
H           0.51417917804669    2.27275858100002    1.04662227486694
H          -0.82156632233362    1.97973591890794    0.35095818539091
N          -0.12846642553869   -1.11453231100776    0.94002237562311
H           0.56152182889156   -1.83377150531470    1.15514618200925
H          -0.85184179492280   -1.45364472063839    0.25842830939258
H          -0.57932621738971   -0.70411991533493    1.79460022222136
H           0.38951368907266   -0.34162834815061    0.44001017644952
