    23
        -45.37689173  Gyration_radius:  2.30594937702 Dipole_moment: 5.587
 S          -1.24009638854805    1.13401949747397    0.81661823876065
O          -0.19190622363464    0.74024056854967    1.76674679182175
O          -2.56770977639036    0.83461808674519    1.25315647572166
O          -1.12809402942903    2.73292159605070    0.72948638321920
O          -0.90502543571956    0.69175794414079   -0.52856524931902
H           0.45413342152912    1.34373236638057   -1.16880726253767
H          -1.77361296346213    3.03556184796942    1.36103359589361
O           1.37292742926985    1.61700512215718   -1.40546917459310
H           1.41292225073458    2.55836659742770   -1.23051296238185
O          -0.42626727128959   -1.19055801487962   -2.39191498279849
H           0.15158989000952   -0.68846669192695   -2.97007273524521
H          -0.79749410448041   -0.54404175674154   -1.76569211816138
O          -1.31000205985905   -1.68712630084561    1.38302862063561
H          -0.91431625298941   -0.88376565634887    1.75215689878665
H          -2.20769801858769   -1.42767273266570    1.15887336172318
O           0.69553665447708   -2.43230172243564   -0.30038353743818
H          -0.05635628107061   -2.40691385833195    0.32340161499806
H           0.30713394709425   -2.17127734503857   -1.16400904098115
N           1.86146592414985   -0.25085251986117    0.48098880352641
H           2.73032848766845   -0.36592606790513    0.99044388527169
H           1.47020661275934   -1.20563592734047    0.13166226661350
H           1.10258133414433    0.16011033297432    1.09699054896965
H           1.95975286355301    0.40620464443566   -0.31916042246391
