    23
        -45.35563501  Gyration_radius:  2.38610525203 Dipole_moment: 7.073
 S          -1.61762468088865    0.65993633520430   -1.42254564309547
O          -2.19592122696817   -0.07882926924004   -0.32077771165562
O          -2.43998263403936    0.92692974093140   -2.54178514796081
O          -1.01176330116286    1.97697131870182   -0.87846544295023
O          -0.32705077516705   -0.10612006886647   -1.85866177375505
H          -0.47616721587154   -1.08997762748742   -1.61284387809749
H          -0.94284947413383    1.87923553853605    0.12741141628851
O           1.46319975566907    0.13444599603301    1.65043522049693
H           2.15117022748946    0.37253606529021    2.27366852689490
O          -0.94642753274401   -2.37771632537599   -0.96761131078333
H          -0.35021330388143   -2.52336435291769   -0.19961219655828
H          -1.74032346752682   -1.95357566039479   -0.60993246123710
O           0.51372317342199   -2.40186171036213    1.29505237317547
H           0.91107714226455   -1.51855524278385    1.41085880542527
H           0.01702928048338   -2.58880654348407    2.09336604394394
O          -0.97833416103742    1.32807555353932    1.58480025622350
H          -0.12012043726138    0.88290786668236    1.73225618516464
H          -1.59780929270041    0.64910700173916    1.26996524584844
N           1.99774569879053    1.22214382984419   -0.68876156782789
H           2.89518649078625    1.10700541394151   -1.14338548402800
H           1.72863668761092    0.52518724156898    0.75970386283631
H           1.77116175575623    2.20974652430364   -0.68631329488028
H           1.29565730111348    0.76457836460413   -1.26682203345016
