    23
        -45.37539239  Gyration_radius:  2.30834364448 Dipole_moment: 5.193
 S          -1.26854650866934    1.30824476540154   -0.67228944429389
O          -0.11961794834025    1.19986977034312   -1.55903566104696
O          -1.59509519845426    2.63658720598230   -0.26008299302516
O          -2.51838340066087    0.77677893598974   -1.53906931017514
O          -1.17615500082345    0.33087422059516    0.41721391096865
H          -1.17515446244223   -1.15063699983933   -0.31103602811245
H          -3.05144839867417    1.55360902491687   -1.68111730525035
O          -0.99630502473867   -2.00051843006401   -0.77684985152982
H          -1.62384965848078   -2.02530075947273   -1.50082032924564
O           0.84077453566589    2.00319464718741    1.16945833336634
H           0.65365366390102    2.89054140550015    0.85716929874247
H           0.03163997811819    1.50274930997064    0.99740219519209
O          -0.02384383424889   -1.47640494315867    2.14712812390927
H          -0.29460073198260   -2.26538928705584    1.67130859440159
H          -0.53685366582247   -0.75244447895699    1.75639061920383
O           2.27056427177065   -0.32285701041195    1.33566740784054
H           1.57765681795589   -0.80388654131490    1.83655630377068
H           2.01500970490869    0.61287717048603    1.40417930563505
N           1.42389006183806   -0.82416253408148   -1.07539373440835
H           1.86574718160214   -0.65870531225922   -0.10126329480083
H           0.68860081379815   -1.55410258273757   -1.01180148680814
H           0.88958839412107    0.06469442004866   -1.32837707260536
H           2.12272839963138   -1.04561197704503   -1.77533761173724
