    23
        -45.38497755  Gyration_radius:  2.25790149808 Dipole_moment: 2.528
 S           0.07323542261848    1.43273534031946   -1.19709005023723
O          -1.07595764948165    0.95267868284892   -1.94080679570370
O          -0.22717733582582    1.80032784119461    0.17073900869072
O           1.19825116288792    0.50377892651609   -1.28768192781116
O           0.54344979828460    2.76387813875845   -1.91500701754232
H           0.54907911363244    2.50269433288205   -2.82970031231018
H           0.87503409272333   -1.16249429865035   -1.04767772136716
O           0.53647268746020   -2.00297184928531   -0.67240317251509
H          -0.42577753847532   -1.95942336998976   -0.80402576062188
O           2.13423146964557    1.00321763585343    1.11869705665198
H           2.10735144333993    0.77668282753931    0.16695712724865
H           1.41079150108234    1.64516519646065    1.18513839462289
O          -2.07716437356479   -1.15898280324229   -0.83496059051194
H          -2.86638075466550   -1.41622234736692   -1.31422864139928
H          -1.73647531424732   -0.34225126516733   -1.28798388783314
O          -1.58341413198947    0.00534453522329    1.60191624778984
H          -1.21414152847815    0.80618934708485    1.17513061961511
H          -1.98195924345743   -0.49353030286082    0.86806403089627
N           0.76462754193609   -1.15474709878398    1.80299620805852
H          -0.21362090208802   -0.74476773476814    1.90968020264235
H           0.75545089971436   -1.67101482531291    0.87082325255145
H           1.42787867636187   -0.33425495666907    1.68323476386845
H           1.02621497262339   -1.75203195256918    2.57818894526769
