    23
        -45.37277955  Gyration_radius:  2.43334030869 Dipole_moment: 3.413
 S           1.69810822733029    0.83664270544899   -0.96045109137908
O           1.10003432865053    0.93284808523852    0.37557726549312
O           2.27633036960459    2.04713163162931   -1.44126715072873
O           2.91877952181563   -0.20154836015212   -0.78908694936849
O           0.77264367599547    0.16008724597983   -1.86599917626429
H           0.97466634241024   -1.51198646410839   -1.50792624093803
H           3.65489733518353    0.39962332188811   -0.82242569966384
O          -1.77577225673176    0.49591216882043   -1.35163173358118
H          -0.83177936115861    0.46226854826241   -1.63753304509589
O           1.06980225980524   -2.36307792258089   -1.03297022835744
H           2.00618357625869   -2.42598972246655   -0.83379748276351
H          -2.29876864326701    0.51368191787963   -2.15411349885551
O          -1.80074577390620   -0.21513871763916    2.80799772943909
H          -1.77470866789552    0.62572977719265    2.29338347766352
H          -1.50720234963729    0.00513312873145    3.69242101388119
O          -1.38936903126974    1.85399487345051    1.13704033912786
H          -1.78244966309078    1.62578438885536    0.28420663568342
H          -0.43138501401601    1.79774736521457    0.99110113491440
N          -0.58805322363407   -1.04504981622944    0.58121486508912
H          -1.31045874668069   -0.73770944643175   -0.08855799036264
H           0.13811217807099   -0.26432125892103    0.58066414292826
H          -1.00706242381567   -1.10380021838974    1.52794095583584
H          -0.11180265921461   -1.88796323137305    0.21421273657880
