    23
        -45.36636305  Gyration_radius:  2.39230388301 Dipole_moment: 5.766
 S          -2.08354888889635   -0.26681258433938    0.87525276905762
O          -2.13897472296182   -0.89305522425135   -0.44862904226783
O          -2.83580600401507   -0.90688221145782    1.89435891229470
O          -0.65731239390177   -0.07473766879268    1.23657150706010
O          -2.63985777504966    1.21003910727387    0.69124905065087
H          -2.24048157890917    1.50872922677363   -0.13500173744962
H           0.02445391517311   -1.15619245281493    0.21767541750866
O           0.54768664363290   -1.71909265445226   -0.40571517205186
H          -0.11250620435640   -2.28069603653916   -0.81835985250141
O           2.57648909791589   -1.26271732033799    1.39564452399145
H           2.03472378676238   -1.64350743728141    0.68195682033749
H           2.17602647187355   -1.56678866893108    2.21322088602424
O           1.22634520397142    0.55066397738124   -1.79043731462641
H           1.11871545594855   -0.38706173497454   -1.53972506002099
H           0.31440433379610    0.87016604162613   -1.94110353238632
O          -1.41530377088414    1.11863515340683   -1.77989891528279
H          -1.96161589412074    1.21214396799214   -2.56225680707368
H          -1.68114259608932    0.24297046570543   -1.35784106749039
N           1.57060491822230    1.13101114885346    0.72872979160538
H           2.18839235331680    0.35969818510637    1.07453557524318
H           0.59503131440745    0.84128472878143    1.02888748908219
H           1.83648664347374    2.04225808819932    1.08171332395269
H           1.55718968076465    1.06994391312866   -0.34082756558543
