    23
        -45.34917501  Gyration_radius:  2.36709283471 Dipole_moment: 7.529
 S           1.78200065267880    0.82240161099869   -1.21696286938085
O           1.36779226796317    1.60330756455346   -0.08879731010448
O           2.79614826394863    1.33987741326493   -2.05644576069588
O           2.14853816171140   -0.61364044753291   -0.70957738236194
O           0.52300046064553    0.50712074700086   -2.09371909640339
H           0.04665962207577   -0.25093695086871   -1.65826360078912
H           2.09765547885856   -0.63111256896701    0.28820959328117
O          -0.82899138594015   -1.05380569454417    1.63805266723413
H          -1.53898468377400   -1.36905526003135    2.19814300167965
O          -0.63031629577198   -1.54708004648249   -0.96677462507672
H          -0.73972170301341   -1.40608676981420    0.00549140379120
H           0.07555351757185   -2.18916405566403   -1.07116803049257
O           1.84345659514834   -0.92706685264615    1.84024159528390
H           0.86438877627867   -0.95294610957627    1.89529535280660
H           2.16784852262769   -1.78696743021682    2.11554778498990
O          -2.33079011581791    0.85680691960725   -1.59290209277506
H          -1.58478349461529    1.17804982961057   -2.10920475796697
H          -2.24487092461892   -0.10098783211387   -1.57970032389349
N          -1.20380848960848    1.39400969091450    1.04197499390700
H          -1.81282532032827    1.41841861405745    0.22473939283882
H          -0.26590695444617    1.65004914818016    0.72653229780342
H          -1.51836328502936    2.09175497718148    1.70254591351744
H          -1.01367966655310   -0.03294651690208    1.46674184281231
