    23
        -45.36848287  Gyration_radius:  2.37423679535 Dipole_moment: 4.180
 S          -1.86246161235151   -1.19013637781518   -0.16141958283738
O          -0.63876935278526   -1.17009440803341   -0.95390302833047
O          -2.96428152937860   -1.87248314023775   -0.75320864149691
O          -1.50159277976615   -2.00292592187567    1.17873482175327
O          -2.14898141368500    0.16368577262363    0.33759152615954
H          -1.09912884002781    0.26265128365151    1.68113863606644
H          -1.89220177943425   -2.84724377694208    0.98374327365475
O          -0.34513856330671    0.44604248697435    2.27883397871106
H          -0.51802094332698   -0.05991493678178    3.07419303370038
O           1.40932644811954   -1.00788065785136    0.73526165596864
H           0.69498715976731   -1.22647293264843    0.10395944972331
H           0.96233234979058   -0.51103481657393    1.44117459340223
O           0.71768655139612    0.71925087887284   -2.29779049375386
H           0.24445125403556   -0.10479051793824   -2.06985971832109
H           1.63161842305340    0.61118005546878   -1.94205615805964
O           2.92088372251030    0.46195466603377   -0.84023646553271
H           2.44098811607469   -0.09587606868542   -0.17471288955140
H           3.68663435369343   -0.04724090715759   -1.10730461941703
N          -0.34265144282836    1.92800583649766   -0.29587548524298
H          -0.67364562161320    2.87890990047908   -0.41948628500296
H           0.29526068412446    1.86894914873434    0.49727547100787
H          -1.15597056965924    1.26581923869477   -0.09157853633665
H           0.13867538559896    1.52964520451472   -1.20447455626438
