    23
        -45.34501479  Gyration_radius:  2.51236494089 Dipole_moment: 2.702
 S          -0.80992014265845   -2.42352559359416   -0.25275464520604
O          -0.45060534887926   -2.66741461707279    1.10507200569132
O          -0.76586785982128   -3.47328579761550   -1.20390206481532
O          -2.31419155748019   -1.86385212216581   -0.24886664546655
O          -0.03061558859308   -1.20162210853101   -0.76753013752327
H           0.06699291474506   -0.60214142239845    0.07190862171711
H          -2.70285747155735   -2.16293308016817   -1.06855085755758
O           0.16692670125315   -0.07093540311804    1.46431486372071
H           0.14502796157687   -0.94341241342436    1.88050377726406
O          -2.22423003003102    0.93358019703214    0.54434124165512
H          -2.54179945308736    0.05424122969987    0.31354615962579
H          -1.45498487253419    0.78849288821381    1.11500175036714
O          -0.85268776980582    2.16529097784974   -1.45927652641213
H          -1.40502508314463    1.72584672944728   -0.78075585682983
H          -0.98712716991189    3.10681930473392   -1.34426031795531
O           1.64394815170594    1.01495584531449   -1.54532593739988
H           1.37866411224374    0.11231522091747   -1.74007015622787
H           0.80961237263237    1.52001814032655   -1.56057005066560
N           2.57929568674423    0.82663401899488    1.12472316512438
H           1.12646342123200    0.27574459992963    1.46148993444333
H           2.42158940955853    0.99586727807775    0.12458608051935
H           2.84503770507672    1.70436727442576    1.55165779642036
H           3.35635391069527    0.18494884304996    1.21471778952042
