    23
        -45.36064950  Gyration_radius:  2.67912348031 Dipole_moment: 7.139
 S          -1.61391324883004    2.21533782600879   -0.15261588344167
O          -1.19334501819617    1.66220025317820   -1.42951870977812
O          -2.13095845899969    3.54476855775209   -0.16357650013314
O          -2.86971774262677    1.26106010270751    0.28952709692624
O          -0.59734772119831    1.93540853256638    0.87115569670135
H           1.39745021691058    2.04819551024462   -0.22263148056033
H          -3.58736291288428    1.88114689048696    0.38023738914192
O           1.40349747739153    1.77988225571129   -1.14711277660417
H           0.45859805481093    1.85815370408619   -1.41733518406716
O           0.15967235243017   -2.36123401797312    2.06749903477620
H           0.99920826477610   -2.46198177969653    1.56924333658519
H           0.39837651307851   -2.02088415673059    2.93133946761243
O           2.33615632295291   -2.34383701334998    0.48333281964543
H           2.06864660621533   -1.76773936412181   -0.25419131149594
H           2.75375082607808   -3.11377675407585    0.09492673154430
O           1.26621609155811   -0.78108526960553   -1.52421274764071
H           1.46343993831787    0.19163943604152   -1.38095571820096
H           1.10186448483610   -0.86824445750064   -2.46456986823831
N          -0.76957944967928   -0.55847629418266    0.29593582425210
H          -0.60433089384144    0.44543668954346    0.64959992388872
H          -0.57629075003850   -1.26823199911014    1.04140418062478
H          -1.74016688962358   -0.56170730290828   -0.01147910969995
H          -0.12386408341410   -0.71603133906108   -0.50600221181056
