    23
        -45.37280796  Gyration_radius:  2.36415889227 Dipole_moment: 5.564
 S           0.62072447978296    1.52574477227388   -1.03328612826297
O          -0.76203464751456    1.40163214761691   -1.44290313124131
O           0.80951455542694    1.85821990535669    0.36288194637818
O           1.39937481185505    0.34744792197217   -1.42992641218543
O           1.21560265923850    2.74351207175561   -1.86445747771439
H           0.75652267020725    2.67199208325985   -2.69539712777094
H           0.45393868221829   -0.96205135676400   -1.66436308027532
O           0.03818359807180   -1.86124277774886   -1.66253436329305
H           0.54805015635232   -2.38347285352408   -2.28418934157332
O           2.13587321094238   -0.30159681794963    1.01145372224823
H           1.78258401721736    0.58449228100367    1.21140938215351
H           2.19068831717544   -0.24830843371034    0.03666948498707
O          -2.16617747957771   -0.68808805055973    1.70648602846390
H          -2.04085222016828    0.28549948874750    1.50636067729193
H          -2.92552194260455   -0.95263398167986    1.18403677581497
O          -1.79841961701020    1.77083765816765    0.94010157995565
H          -0.90802208267284    2.04599508651914    1.20164890452102
H          -1.68888480229689    1.65239268985210   -0.02575996979413
N           0.06530399633259   -1.91931480606018    1.00359490031313
H          -0.01018800969462   -2.06214621158859   -0.03418922252710
H           0.18855464515417   -2.79927042567579    1.49247106777074
H           0.91356500429274   -1.28044389573882    1.14650080678265
H          -0.81838002271431   -1.42919648551532    1.33339097795060
