    23
        -45.37493318  Gyration_radius:  2.28689039282 Dipole_moment: 3.845
 S           0.36186763229547   -0.29143133242064   -1.50703395916843
O           0.17386818762443    0.28202298505992   -2.81537199491371
O           1.25189890846686   -1.43463663099265   -1.41970191112065
O           1.11043658052705    0.80135910058732   -0.61331614544759
O          -0.90374108608304   -0.56170583044533   -0.81996505244303
H          -1.19778595317635   -1.83811110801443    0.19964091124459
H           0.70616487752962    1.65666597569522   -0.82444506745100
O          -1.12633570168746   -2.60590527572731    0.81735646447112
H          -1.23859275970480   -3.38505274764344    0.27028282197995
O          -1.46417539989407    1.60406769434349    0.59306566343269
H          -1.33739587747827    2.30088516204762   -0.05971191830667
H          -1.43287361302342    0.77181683562180    0.07735952510003
O           0.35534825024138    0.73742920747446    2.32652531836113
H          -0.21572969553844    0.49901000619035    3.05994235623853
H          -0.24212210697037    1.16959946191778    1.66758274896058
O          -0.43118942743815    2.63550506331050   -1.86998563105595
H          -0.36402339759614    1.80183793115771   -2.39148371128199
H          -0.15581177914170    3.34098007277678   -2.45874301281752
N           1.25725892208553   -1.50240964771525    1.17465624044778
H           0.39938780790876   -2.10325339393252    1.25837409894223
H           1.41435130101675   -1.42670713363930    0.12100259582206
H           1.01531774639121   -0.55037478332790    1.57107739969759
H           2.06387658365366   -1.90159161233341    1.64289223929849
