    23
        -45.37288339  Gyration_radius:  2.30133686116 Dipole_moment: 7.043
 S           0.89826630474406    1.49662842044500   -0.92175783765105
O           1.31232897358778    1.00762673788705    0.38631050138832
O           1.56017865651443    2.66470382844848   -1.39933534231892
O           1.36163841333259    0.32137070344172   -1.95410353057417
O          -0.55877474838432    1.50815576661778   -1.03108204972235
H          -0.62097930995427   -1.21090909280701   -2.13192217887459
H           1.79811838566589    0.89988861335566   -2.56923362416191
O          -1.20798392328549   -0.96810007611748   -1.41276028594976
H          -1.04320123198317    0.00046633949241   -1.27591986019465
O           2.18819021027018   -1.44673719246898    0.17235524252421
H           2.00865280386034   -0.48964119358010    0.33358748392966
H           2.33979971253959   -1.50567464328861   -0.77384650434816
O          -0.42813050349568    0.32804238271324    2.31679338844552
H           0.30534851407033    0.71848025722534    1.80136738198535
H          -1.21330241951678    0.84382097530600    2.04470084083054
O          -2.30514339509018    1.70292066282706    0.97554781695051
H          -1.67695764581076    1.76794244241380    0.22787738945548
H          -3.15682977914645    1.49507804985689    0.58860362019647
N          -0.32773352010877   -1.86304695044033    0.93394716284972
H          -0.44838746622678   -1.01873273594384    1.60424899110879
H          -0.67866215213343   -2.72409436811485    1.33633587439520
H          -0.80751380356285   -1.61690542340506    0.02905871616920
H           0.70107793413169   -1.91128351389061    0.71922681352350
