    23
        -45.36857905  Gyration_radius:  2.54551785939 Dipole_moment: 2.286
 S          -0.16289309601740    2.38323209976014   -0.75213524817754
O           0.79833996593144    2.84422020110826    0.21889352697533
O           0.45689904956543    1.64684644462263   -1.85158772303774
O          -1.26252116045505    1.62247621607443   -0.15768188695538
O          -0.84050740877160    3.67237948569406   -1.39012889007655
H          -0.11525111749738    4.28343185354182   -1.48531811589595
H          -1.77482500724629    0.07873074042869   -0.43968116512532
O          -1.87902737141692   -0.89140196450171   -0.59530373884225
H          -2.58345600599580   -0.98466325642345   -1.23742429867337
O          -0.52031785937338   -2.08526755928159    1.62679953335584
H          -0.25396380970086   -1.25733619640151    2.04488186746356
H          -1.21626402126501   -1.84773960340677    0.99955388544682
O           0.34447555804138    0.64672068024391    1.70083755909059
H           0.92866698636065    1.41644076661827    1.71275547351340
H          -0.44469674476702    0.99883261478213    1.24020998161065
O           1.64428400863508   -2.99278641235584    0.21430687181356
H           2.03719778377263   -3.79861901656941    0.54892326120656
H           0.87511669316101   -2.80086268880919    0.78946501196705
N           0.82642698146202   -0.60160898486168   -0.65670894269795
H          -0.11508517931612   -1.01321171777207   -0.79446431192949
H           0.87876799395619    0.24742656012598   -1.29325429057267
H           0.84239302420367   -0.23647478809211    0.32560466958488
H           1.53624072672581   -1.33076546453262   -0.76854304002920
