    23
        -45.37659854  Gyration_radius:  2.32030982045 Dipole_moment: 4.380
 S           1.86983777683333    0.15288095261604    0.28449335664561
O           2.78581026301753    0.06489058104871   -0.82063328301803
O           1.27620935054066    1.47092419507439    0.46063751517728
O           0.85875577392146   -0.89356004979425    0.32730076743539
O           2.74320396434386   -0.10178527232710    1.60384219503145
H           3.59769435806824    0.24542649521221    1.36671649457573
H          -0.17774239247493   -0.87283579562497    1.59585622382846
O          -0.86959700344949   -0.71700905651584    2.28386045295292
H          -0.39998718593161   -0.67691343975228    3.11797217416447
O          -1.87581778127037    0.35661662135365   -1.63975710024785
H          -1.00662696756112    0.49969646938421   -2.06499833011713
H          -1.86961985096542   -0.59904088280021   -1.41376355150420
O          -1.34186111918615   -2.08885727099664   -0.68087003226894
H          -0.44879846620080   -1.77636204575487   -0.44975006219478
H          -1.75587578073426   -2.31347834823509    0.15533576644531
O           0.70584871707870    0.36138264147612   -2.45853470955579
H           0.82924540896905   -0.39097610604983   -3.04241689643263
H           1.48045302495423    0.36187245004571   -1.86650611650830
N          -1.30750828342239    1.40555310475884    0.66405198742763
H          -1.42332292491522    0.67683379630870    1.39404560014321
H          -0.25416465893057    1.54005629996024    0.56384002828361
H          -1.64674810765095    1.02141283423301   -0.29104603512265
H          -1.76938810502411    2.27327182636946    0.91032356485169
