    23
        -45.37722510  Gyration_radius:  2.28028788243 Dipole_moment: 7.195
 S          -0.12027889025988    1.14300512286689   -1.12366509725634
O          -0.61843260328819    1.98033717112052   -2.17791081030011
O           1.31985707768593    1.13540092543880   -0.94966434654758
O          -0.68636363846737    1.68746974944299    0.26370556855553
O          -0.64005999628413   -0.23595425240101   -1.20471730773415
H          -1.15458093746986   -0.92960504408775    0.16142729524541
H          -1.64266017120672    1.75386152510329    0.07926722666356
O          -1.34826361097323   -1.45850757246287    0.97857983565108
H          -1.86818645123460   -2.20928460711836    0.68710359302811
O           1.64061992679741   -1.55551495048176   -1.16316552318806
H           0.73355862569210   -1.20609313694578   -1.32137739194061
H           2.19393468484256   -0.78793747693726   -1.35236962498719
O          -2.96134315795279    1.55714448206362   -1.08286640090143
H          -2.27734936682862    1.86007525667390   -1.71428767880203
H          -3.11791617466418    0.63597912346463   -1.30357494175830
O           1.68415671597595    1.10780296487553    1.62454506748643
H           1.68161582272286    1.21792004960739    0.64049935114711
H           0.88861488116784    1.57092618487094    1.90360244328421
N           1.27272819103888   -1.47853887947183    1.44035170340916
H           0.22929283558050   -1.58755930733666    1.46342733745686
H           1.49260576151510   -0.45484811235277    1.65399728813976
H           1.74399175520343   -2.11247345827400    2.07531193132020
H           1.55445871040840   -1.63360577766779    0.42178051203261
