    23
        -45.37985876  Gyration_radius:  2.25830872606 Dipole_moment: 2.613
 S          -0.21059962546261    1.30201406149555   -1.35510686454473
O           0.70433786227012    2.40587313097725   -1.35332400871374
O           0.35831544610886    0.06210314401474   -1.88010143063170
O          -0.86095167164665    1.06611239311746   -0.06908912201437
O          -1.40495484642506    1.68422166735733   -2.34405981538845
H          -1.00532072909958    2.28938811939921   -2.96123211675999
H          -2.21134524657088   -0.62915217271016   -0.81168454761855
O          -1.68430648646213   -1.37183760130682   -1.12253328111789
H          -0.92784955262109   -0.93811752125301   -1.58064148240117
O           1.99424669435393   -0.97968602910919   -0.06195038348843
H           2.07799395152078   -0.17299225937336    0.48337936173719
H           1.55773158274820   -0.66727864244423   -0.88241366954364
O          -0.76840806340995    0.06734672907978    2.44462217929006
H          -1.04624199926290    0.52461138423570    1.63042083272681
H           0.04957246090303    0.50760273993162    2.69860818930139
O           1.52203069774507    1.41147083267004    1.13697404921894
H           0.66099959143920    1.41836277388844    0.67927429201406
H           2.01561855606038    2.11559104073750    0.70860132863506
N          -0.16750726754115   -2.05374975544604    0.94652789164024
H          -0.84713464131353   -1.92794038293669    0.14126638461651
H           0.79204258414295   -1.75190083676002    0.57090683462931
H          -0.43491333830644   -1.35602573677061    1.68863011150177
H          -0.16335594918285   -3.00601710854656    1.29292527704019
