    23
        -45.35387483  Gyration_radius:  2.34543439798 Dipole_moment: 5.316
 S           1.03837314496786    1.18730320645480    1.38186512156787
O          -0.37362176529686    1.41215881925881    1.55475405127988
O           1.61972208304952    0.05333240493611    1.99777690002536
O           1.36534699267533    1.20789427371760   -0.11368446265844
O           1.76228529248491    2.47665008219679    1.93107131879124
H           1.11507372745453    3.17785445034374    1.95911281172095
H           0.51977315379934    1.57723265328235   -0.60720890720553
O          -1.54887745790088   -0.41699471846531   -1.73904030716084
H          -1.98939432731697   -0.72407299719231   -2.53195125912408
O           0.51925037706147   -2.37402925469978    1.09329604023929
H          -0.40403720678884   -2.07711584663953    1.19649013171141
H           1.04914502964442   -1.72316409790932    1.57060597040840
O          -1.81292481126665   -0.92729257348199    1.03730508160613
H          -1.90777726497208   -0.81045567985748    0.08063446284119
H          -1.42984791733069   -0.10733472357126    1.37626410649195
O          -0.81340925502108    1.99311795609710   -1.03567028849868
H          -1.16832226321113    1.15191018111332   -1.42785072546431
H          -1.19496209367340    2.03758282645118   -0.14756585827979
N           0.82498133561206   -1.46636523091622   -1.55104187764027
H           1.49243796039491   -0.71265651890026   -1.43574009886252
H          -0.63156595203728   -0.86553560616407   -1.71507172453110
H           1.19773138666949   -2.11869017690329   -2.22905041611238
H           0.77061984100893   -1.95132943913973   -0.64530007108901
