    23
        -45.37871389  Gyration_radius:  2.32966665354 Dipole_moment: 4.105
 S           1.26157097352432    1.19296109759828    0.80224597393028
O           1.63197801697293    1.46608591372371   -0.58205808221246
O          -0.05512653011610    1.66499895075787    1.15423219109921
O           1.47285955999511   -0.21854756300383    1.12760179333289
O           2.28000930232222    2.00871730398494    1.70385321966051
H           3.13967051327684    1.73767932772188    1.39584568571282
H           1.58578471301299   -1.04064913382490   -0.33982820139741
O           1.55293857207490   -1.11671039502388   -1.31950540651773
H           1.85487539001596   -0.23643231990068   -1.58732657942955
O          -0.85381142817895    1.78851449462117   -1.37530574913281
H           0.12522894949489    1.82161309960812   -1.34866661473578
H          -1.07118410326724    1.97262200770734   -0.44829893742912
O          -0.84425080157147   -0.59816984220711    2.34829820756515
H          -0.98159621390038    0.35225688618501    2.22554738710400
H           0.07941877949713   -0.70311587184556    2.05028649828519
O          -2.18624962761667   -1.86645258840066    0.49779450825989
H          -2.07181503904664   -2.79423655322323    0.70890557640598
H          -1.75432649509196   -1.36653962890675    1.24678190874857
N          -1.04902235120096   -0.82643840247660   -1.66896782988054
H          -1.44842105918819   -1.14803289591747   -2.54396843516745
H          -0.01382569891261   -1.06743502953799   -1.60361976261392
H          -1.10356425205029    0.23668156192274   -1.59728576125372
H          -1.55114116019882   -1.25937040969728   -0.84656160037597
