    23
        -45.37628100  Gyration_radius:  2.35496244851 Dipole_moment: 3.307
 S          -1.98082275282304    0.64601846308049    0.00325798266448
O          -2.28566120691995   -0.23515041168824   -1.09837122459984
O          -2.02263565600074    0.01108329000700    1.30209428369377
O          -0.72401335405359    1.38356090597911   -0.18879277092625
O          -3.09672515719297    1.77867321732714   -0.00078988211373
H          -3.89770939714601    1.26500921110404   -0.01622324994903
H           0.24102834555009    0.90673271328538   -1.43137432902894
O           0.88692292766244    0.53167279286570   -2.07794727250330
H           0.60492440567101    0.83454934039459   -2.94191610693109
O           2.97931680852095    0.08678083032256   -0.42181772518768
H           3.14200707763708   -0.85267321602822   -0.53168956143096
H           2.36940095138907    0.34119262076632   -1.14076023882050
O          -0.13364888913296   -1.79185292500549   -0.87449630599770
H           0.42374862313581   -1.21543826270064   -1.41463623177962
H          -1.02765291349843   -1.41527788110182   -0.98327372478981
O          -0.08118069640079   -1.70894012361290    1.80276182493964
H          -0.94530715272354   -1.24671404027158    1.81872868600440
H          -0.01193670760638   -2.01464821911707    0.87398196075970
N           1.13349574870284    0.55685177869147    1.48691008508577
H           0.37639501776756    1.01102377304942    0.90832603241717
H           0.73250671319489   -0.41632592962791    1.74798751394912
H           1.97057415259001    0.43131000452546    0.87104547499573
H           1.34697310170030    1.11256207777080    2.30699478952791
