    23
        -45.37617117  Gyration_radius:  2.41988573559 Dipole_moment: 2.498
 S          -0.25874136432350    1.77318551666966   -0.22200398780104
O           1.07148201634710    1.29395798608890    0.13766054293981
O          -0.87068074553621    2.55200834543153    0.82964747026712
O          -0.05873386822297    2.75655680042242   -1.45258920029217
O          -1.09552261273265    0.69583649061570   -0.72452564960821
H          -0.37486681306841   -0.09998006964885   -1.97767372620646
H           0.32975824629503    3.52027856705472   -1.03873255607066
O          -0.01131587005879   -0.67930560149634   -2.68565473095787
H          -0.77424617961859   -1.03965561924881   -3.14118136609934
O          -1.14968819460724    0.85418641265837    2.82404046107460
H          -1.79590501212916    1.24176710201242    3.41713755409750
H          -1.00423551032820    1.52375779789208    2.11752045260380
O           1.76359193179111   -2.28007155240215   -1.54661185909390
H           2.60715027833720   -1.98403201408749   -1.89290968802812
H           1.08108365818691   -1.75618303262415   -2.03412442929360
O          -1.53576023590465   -1.19102254430109    1.13604548879934
H          -1.62469073734519   -0.59737559651523    0.36704119429147
H          -1.54347920747018   -0.58184290043023    1.90277515115190
N           1.06780627163773   -1.22149751565271    0.81287933003193
H           1.61705555681490   -1.44468140872205    1.63517325681957
H           1.38749708362817   -1.75921263984662   -0.03039181137830
H           0.02753902919882   -1.39109138559835    0.98744547150797
H           1.14490229913940   -0.18558312826128    0.57903262123214
