    23
        -45.37305337  Gyration_radius:  2.31415387063 Dipole_moment: 5.948
 S           1.37057681705147    0.90937878995305   -1.34443377186651
O          -0.03823079081956    1.29227650431503   -1.48013671436397
O           2.22765551324198    1.35889549358831   -2.39011672344981
O           1.86550604930092    1.71030319742675   -0.01750654190779
O           1.48174537675222   -0.49727536681340   -0.98312161471311
H           0.16553310361930   -1.21862875125389   -1.75745204954734
H           2.64454302809230    2.12060748491977   -0.37766604995445
O          -0.75551508438047   -1.32982676081956   -2.07678928538400
H          -0.98847721714257   -0.44947297137639   -2.39034189189429
O          -1.86204403613177   -1.72608714331691    0.26321999139758
H          -2.54437702114375   -2.39707297932740    0.23267109715576
H          -1.47744314230608   -1.66918310953970   -0.65569133333763
O           0.64215267931471    0.86804580882494    2.37972443173456
H           0.79086623488896   -0.10051446114332    2.23042777519010
H           1.29309097368697    1.30636054232446    1.81642323322046
O           0.78501797741773   -1.56046267134809    1.38061453017291
H          -0.10683308607637   -1.85807504335522    1.15791375161216
H           1.17789559440641   -1.27283912539922    0.53326557401958
N          -1.36239979637716    0.91214576633982    0.70473164719242
H          -0.84064835323118    1.11364137012941   -0.21366010208515
H          -0.63061886854135    0.96981897083241    1.48882140855984
H          -2.11480049852234    1.57742096286908    0.84358195340942
H          -1.72319546311005   -0.05945651782849    0.65552065484023
