    23
        -45.36448311  Gyration_radius:  2.31661032693 Dipole_moment: 5.995
 S          -0.27055765473920   -1.60896729629260    1.45821269805391
O          -0.29050881274819   -2.50092354804023    0.32408671986317
O          -0.40367551139738   -2.16217145601316    2.75207031316944
O           1.04519430365881   -0.77936841938127    1.40711156484872
O          -1.37323512861407   -0.53335613541595    1.26250953281555
H          -1.51567417068772   -0.29639326516927    0.28554191115459
H           1.36850894464225   -0.61664883597982    0.45589508880086
O           0.30673388481893    2.09794128216297   -0.90183533066957
H           0.43744049341247    2.99544330979577   -1.20930143508947
O          -1.60936094848241    0.17634728081164   -1.18294608069921
H          -1.01575311391499    0.94873044111015   -1.21968683801332
H          -1.19542184896536   -0.51745579013431   -1.72564372127878
O           1.75474097606650   -0.21149396322615   -0.97825442664498
H           1.26198568310879   -0.80027558533061   -1.57653399580299
H           1.36248376116747    0.67600344588915   -1.07577096435077
O          -0.07187592448010   -1.84777797201856   -2.16774015904895
H          -0.16634355372901   -2.20688115054327   -1.24822218377624
H          -0.12354437961830   -2.60044516817387   -2.75808607548617
N           0.09631650166161    2.00031006081230    1.73784436014306
H           0.71713952154056    1.22759428728963    1.96169302031481
H          -0.84428225701848    1.66602687358316    1.91863961573855
H           0.29155497065612    2.75814301433733    2.38046839632521
H           0.23813426367498    2.13561859999297    0.09994800968099
