    23
        -45.37442475  Gyration_radius:  2.36458093049 Dipole_moment: 3.481
 S           0.35627552698598   -0.57445821904860    0.66472088918054
O           0.86692293939215    0.76171347011731    1.02816827569070
O           1.24839091291746   -1.21256928393066   -0.28126092003196
O           0.32613516074033   -1.45044330386045    1.93632299481767
O          -1.00888028427586   -0.46468200903387    0.14621894185048
H          -0.95358747105822    0.21244524939136   -1.40859476252602
H          -0.32509387516067   -1.06778868738091    2.59398046759347
O          -0.61436631137883    0.53963010326012   -2.27234145047132
H          -0.31916696182929   -0.27639953465994   -2.73055173876102
O           0.61443885540201   -1.77132250364284   -2.78573716440937
H           0.90576188058704   -1.67099040573239   -1.85182755240415
H           0.16603665204212   -2.61697941821385   -2.82991289031657
O          -1.64516536960774    1.55161685459211    1.74520219739669
H          -1.67702216940767    0.87262192550953    1.04325369153033
H          -0.71512808942996    1.81247594568213    1.75198035432470
O          -1.48373942963563   -0.41997895372920    3.48513301144400
H          -1.63918496625208    0.42212326133632    2.98542703161726
H          -2.28488787604591   -0.94014974346310    3.39293368482916
N           1.66924612626064    1.29123942591124   -1.34162376015945
H           2.29807448428970    0.52047794442843   -1.56126149669007
H           0.71231702642608    1.09474263683070   -1.84201415758649
H           1.42929478653050    1.19512420672147   -0.28913958955859
H           2.07332846251206    2.19155101892930   -1.57907606733244
