    23
        -45.37494180  Gyration_radius:  2.32464099004 Dipole_moment: 5.885
 S          -1.22815545135467    0.20837018994994   -0.83369797697908
O          -0.75445219848661   -1.16984580439141   -0.67873712323167
O          -1.20401918469951    0.67490754217465   -2.19233051242823
O          -2.70467540861689    0.24038606975450   -0.33847698453056
O          -0.46127104350679    1.09233642217828    0.06796672022056
H          -0.10207915043404    0.57333756534231    1.48596867282410
H          -2.67469011764421   -0.20615773530314    0.53595971528050
O           0.13454890698454    0.17533723210588    2.37767826862818
H           0.37570406676892    0.91666819545100    2.93571732959979
O           1.23407458726001    0.33006457188072   -3.13303001874937
H           1.28826433445362    0.87004758015154   -3.92368404955399
H           0.29418863282443    0.38151275452548   -2.84297498204639
O          -2.44945715714363   -0.70474217247576    2.13456855931060
H          -1.51369386919895   -0.52164091887659    2.34353996217006
H          -2.98061892803038   -0.14726586518559    2.70733657509825
O           2.09719042326368    1.03440269085218   -0.71703146137533
H           1.98679400007684    0.82342604524741   -1.67058899543141
H           1.20678253357503    1.33215762789892   -0.44199382484027
N           1.52670637310941   -1.21280208769755    0.45314948011614
H           2.09288026209604   -2.04940243582420    0.37642351350815
H           1.29742315541920   -0.97606889884406    1.42621502174654
H           1.96849197234072   -0.35001565333640   -0.01502317540284
H           0.57006326094684   -1.31501293558786   -0.05695470391832
