    23
        -45.36857768  Gyration_radius:  2.54545893856 Dipole_moment: 2.249
 S           2.48172255446137   -0.29054941613918   -0.16710519970687
O           2.66339887474557   -0.29307377431255    1.26349094099496
O           1.88879749419570   -1.53082071704641   -0.66192398591666
O           1.74671117961611    0.87846786776269   -0.65187308640706
O           3.92655633286321   -0.18048060773836   -0.82178655202873
H           4.47067500885130   -0.72232353808753   -0.25715144930556
H           0.33887644916853    0.98091658162522   -1.50757851554173
O          -0.57230876538429    0.90312774973768   -1.88174886403339
H          -0.47664227150399    0.96583350952830   -2.83264057780547
O           0.29750607917267    0.95270242614066    1.55713407667643
H           0.98703312449263    0.57585064741592    2.11958117938065
H           0.80652903785439    1.22036389704086    0.76440311161130
O          -2.27231675608548    1.40063769364642    0.36983336290472
H          -1.56266420677698    1.53535914552370    1.00976253444680
H          -1.85720854573889    1.48074758428163   -0.49936880056243
O          -3.13831416512794   -1.17910723596481    0.68413247841175
H          -2.97109634226880   -0.21794935641056    0.59738620912116
H          -4.02488052526223   -1.26840609382023    1.03296808267895
N          -0.56090428444717   -1.07982231576668   -0.01763774083275
H          -1.32865596068621   -1.70417009963342    0.24448593823203
H           0.37680255079292   -1.51657312908882   -0.26021701917298
H          -0.84183343673978   -0.51427080299535   -0.83983081812661
H          -0.37778342618482   -0.39646002571017    0.75568465499704
