    23
        -45.35516535  Gyration_radius:  2.45909928563 Dipole_moment: 6.408
 S          -2.22774967880150   -0.62277430563793    0.91775293179703
O          -1.49116148016627    0.56779950608237    0.56688208182216
O          -3.49069497287891   -0.46677026218950    1.52723461543168
O          -2.37992224846944   -1.49343190157172   -0.36597473406541
O          -1.31613393356811   -1.49183757864077    1.83100273703778
H          -0.36688514901792   -1.42721071108412    1.51667803746623
H          -1.51319316809418   -1.52642087700324   -0.83845558877530
O           1.11444069801222   -1.30284278359526    0.97138968905938
H           1.76572637777589   -1.72033381097954    1.53661690065854
O           0.02908294120377   -1.68630209185318   -1.42855970342683
H           0.21074532124788   -2.57411061133221   -1.74319956149115
H           0.56981145803099   -1.54716511326564   -0.62085117604336
O           1.87737481362462    2.29397665706145   -1.34412761438008
H           1.04122748729255    1.87090698143487   -1.64326011182139
H           1.86316369503418    3.18175458400028   -1.70333172013623
O          -0.46156320679323    1.08083522960698   -1.90966052391104
H          -0.91378049456975    1.04977139863853   -1.04879801163803
H          -0.24936347944912    0.16388848635083   -2.11487733191761
N           1.22867536583237    1.21421063427454    1.21448489254011
H           1.65633537264373    1.64903793796609    0.39451698570772
H           1.58935949147882    1.65570060520584    2.04929747702867
H           0.22584119957114    1.37681359093452    1.15735501736439
H           1.23866357006314   -0.24549556440250    1.07788473167829
