    23
        -45.37968920  Gyration_radius:  2.30027859677 Dipole_moment: 4.378
 S           0.76545659344596    0.16835214571266   -1.61710212903819
O          -0.68723510257087    0.31456708535809   -1.46256504586208
O           1.47864856329061    1.04786609960442   -0.71975648143180
O           1.17389623163333   -1.21891824711352   -1.56134081025195
O           1.09903342585466    0.65498623191065   -3.08905143316159
H           1.07841214683989   -0.15846346042341   -3.58296046063877
H          -0.48610294091473   -2.62975398018990   -0.94277867494249
O          -1.31668274363599   -2.19980433423985   -0.71645393115962
H          -1.22859638201149   -1.30615782497060   -1.09479856863318
O           0.70162131665269    2.50546309204882    1.32322442872208
H           1.08042274627913    1.99375652121160    0.57177633190516
H           0.89612374480892    3.42559000627251    1.14015776396556
O           1.55065290497382   -1.12580991401751    1.08847388216942
H           1.50419557696319   -1.29196732084805    0.12880291537699
H           1.94543524784690   -0.25401661169397    1.16781916448343
O          -1.00684277074743   -1.41101617271274    1.83079584757553
H          -0.02636010413748   -1.40376174931379    1.78450154410124
H          -1.27609337043023   -1.88518144026602    1.01279797486328
N          -1.47405459625479    0.97763407574914    0.96146509538457
H          -1.25139474973202    0.79925246091574   -0.05464887181714
H          -1.34133010541919    0.01250949650446    1.45134315447912
H          -0.76152290227346    1.65501551639870    1.30483974977020
H          -2.41768274042493    1.32985833409947    1.07545854414237
