    23
        -45.37879739  Gyration_radius:  2.32695225539 Dipole_moment: 4.332
 S           1.50402826947310   -0.62357308727096   -1.03141147086710
O           1.74892140460425   -0.91206294550978    0.37788756091265
O           0.15241920245014   -0.94768431269901   -1.43557386691727
O           1.89396512597038    0.73485253258035   -1.36723865685246
O           2.45282874535774   -1.58777084418345   -1.85126825578941
H           3.31389422571919   -1.33069531267378   -1.53838555882653
H           1.05842259743574    1.85174591237490   -0.60809544066472
O           0.50689298992396    2.48785786923065   -0.07610404373498
H           0.85658359498457    3.36026315488418   -0.26326546851904
O          -1.70800874744058    0.98641020634213   -1.01981566819844
H          -1.12893947806574    1.72695511768328   -0.79659264074362
H          -1.11305570905475    0.28846712002407   -1.34850544865827
O          -1.28706648075473   -2.51700841732455    0.15176361132997
H          -1.83022907809877   -3.03681196407656   -0.44308576957259
H          -0.67231811475760   -2.01065860259954   -0.42082504883979
O          -2.21878081317730   -0.27199951932856    1.27070297086918
H          -2.28416609260106    0.23325568272097    0.42653257191051
H          -2.02263641685218   -1.19232426429610    0.98885575166937
N           0.16199249071164    0.56169786801201    1.82507629087306
H           0.81410025806843   -0.11313877660299    1.32449242339752
H          -0.86328107857127    0.20128065209289    1.69807034832720
H           0.41082987496141    0.64470921576303    2.80437455984994
H           0.25360321972072    1.46623269478612    1.33241125907514
