    23
        -45.36765272  Gyration_radius:  2.40276428809 Dipole_moment: 3.968
 S           1.76356593427187    0.42569928285993   -0.98521293547705
O           0.99334258523623    1.64608822982029   -1.10491525525836
O           3.12070509782560    0.46135174939289   -1.42066462214981
O           1.84772116131378    0.17716968650721    0.63159975832631
O           0.99373545069036   -0.73015870261270   -1.45871704378547
H          -0.50487864208405   -0.15418995750299   -1.86849079420765
H           2.70871367844394   -0.21791966392996    0.72350327611125
O          -1.34786672022018    0.35289477185560   -1.80637407801322
H          -1.10857465318131    1.24136631343993   -2.08730395415797
O          -0.33500757404183    3.01723141543047    0.76228732168882
H           0.08752764301733    3.84994190412617    0.97300766003802
H           0.19534537676701    2.61660925469333    0.04117804850605
O           0.33608128489174   -2.66241459588688    0.19821111727757
H           0.44123483604073   -3.47778926872696   -0.29377282575608
H           0.60501770154368   -1.94406574503032   -0.41974850418132
O          -1.79319182225832   -1.95589135980640    1.68738338751860
H          -2.55091440905296   -2.35546774570276    1.25687510105936
H          -0.99781757688395   -2.32721553340799    1.24729136379134
N          -0.90680583627037    0.40830560190532    0.80751924987775
H          -1.39421378763888   -0.35982412953947    1.32186508610332
H          -1.21041880007086    0.40718243658606   -0.21300878127448
H          -1.04928127515907    1.35357143358617    1.18464535264397
H           0.10598035679977    0.22752461193732    0.82284204131512
