    23
        -45.34598205  Gyration_radius:  2.49691303352 Dipole_moment: 4.396
 S          -0.89287895366016   -0.41653887194782   -2.12814797547847
O          -1.08972909177827    0.97554469282760   -2.39621274435780
O           0.17158587913068   -1.08819897490350   -2.79103719621893
O          -0.80577839855011   -0.61842387967330   -0.60701968075949
O          -2.22597520482303   -1.17880012988685   -2.47254570591715
H          -2.95454258559980   -0.59143533227689   -2.27992722001999
H          -0.20215744333600    0.18365424813601   -0.29925990498096
O           0.49537391457327    1.45719303808460   -0.18782840518775
H           0.09726145942337    1.88732883805656   -0.95423619864233
O          -0.54489892834141   -0.69274716443257    2.30086398037506
H          -0.96450913950030   -1.08138412787545    1.52930066339034
H           0.41472278771279   -0.73805332642128    2.10446346149850
O           1.86355544172151   -2.24006227984058   -1.00348714040563
H           2.64505812710663   -2.50766868834626   -1.49038858129810
H           1.23783540826078   -1.89057457067983   -1.66048559775923
O           1.94508451792856   -0.61043396467723    1.22285742660141
H           1.86578362780558    0.22848008869872    0.75847160051917
H           1.94602157224909   -1.29432392389764    0.53006303244670
N          -0.65868807143934    2.11671420633588    2.04273464188079
H          -0.74181661635664    1.13542844998265    2.33585003262295
H           0.06158178701291    1.83779715357774    0.65903026383599
H          -1.58002017132596    2.53401979034339    2.06183141870788
H          -0.08286992820297    2.59248472881905    2.72510980914392
