    23
        -45.37358306  Gyration_radius:  2.29192300073 Dipole_moment: 6.025
 S          -0.15476226562138   -1.18063897771653   -1.78135810239809
O           0.58665514966820   -1.55028847444635   -0.58155759178483
O          -0.58061535871741   -2.25635795333626   -2.61448464413300
O          -1.56369519520267   -0.57971834881106   -1.17188899081533
O           0.44359129889131   -0.04570449896292   -2.45812827372684
H           0.98198607999321    1.13467061694591   -1.59562838377299
H          -2.08317881951052   -0.76674254634753   -1.94578565228787
O           1.27420148018671    1.89844324949547   -1.01662279762983
H           1.68542977299277    2.52908094657350   -1.60923525486336
O           2.14849482681880    0.07747041479184    0.82123377482195
H           2.09072594858256    0.85022856761085    0.23207230245578
H           1.77157313694800   -0.65328686643679    0.28666972724261
O          -1.10496353673108   -1.97957593068327    1.35050425592338
H          -0.43732924860426   -1.98483352503681    0.62144301908329
H          -1.95201178298058   -1.88204009741964    0.91003875766453
O          -1.11111124105333    1.77649670203716    0.25565353882664
H          -0.28382429739834    2.05106905127773   -0.18664138372279
H          -1.43830754305762    1.03625252980423   -0.27876618424836
N          -0.06066971234547    0.31523832803743    2.19241476094567
H           0.93134561786528    0.23014978057647    1.78708268774650
H          -0.56162387824155    1.01220538719827    1.57242233979215
H          -0.52363802219706   -0.62143687019695    2.04290582156569
H          -0.05827241036815    0.58931851493663    3.16765627326434
