    23
        -45.35512275  Gyration_radius:  2.4228441916 Dipole_moment: 7.131
 S          -1.07438613674663    1.51355549803933   -1.49873985482446
O           0.20258353267882    1.39183278797662   -0.82781815443190
O          -1.20034785005116    2.54082846146951   -2.45948315684315
O          -1.42995529725203    0.11548300280860   -2.09456943738546
O          -2.17695686726214    1.64632252851361   -0.42826795831133
H          -2.06326856243501    0.84980031826399    0.16615040229743
H          -0.63128418936041   -0.38474760410392   -2.42954992994898
O           0.65558703066425   -1.08264485218980   -0.02597402588312
H           0.65763659254583   -0.15081323536487   -0.33243097070864
O           0.56152316304057   -1.43455567114268   -2.67709234752083
H           0.80193108940507   -1.51594941037801   -1.73083094380451
H           0.22067076726116   -2.28677216618559   -2.95704454797225
O           0.27400509093902    1.54099813491121    1.94740345972337
H          -0.58919394709289    1.14318966342038    2.08873446097370
H           0.34496957143430    1.69330534745880    0.99255361582262
O          -1.73020590892208   -0.50553345549805    0.93852894896848
H          -0.83941073216356   -0.82894886672920    0.62974566972739
H          -2.37238014437697   -1.16098808548028    0.66022669161803
N           2.17171249875733   -0.64161313577349    2.11136039987032
H           1.28501346989352   -1.08038788217416    0.74797432953410
H           2.14155076286529   -1.19528520889656    2.95789599169467
H           3.13666915092195   -0.38989093634046    1.93869032462619
H           1.65353692520073    0.22281476742004    2.28253703277090
