    23
        -45.37007377  Gyration_radius:  2.54388503373 Dipole_moment: 6.284
 S          -0.24465875159520   -0.18989297061596   -1.75757710873312
O           0.69502685715563   -0.80174446165143   -0.79735672507446
O          -1.60997060460941   -0.55221132672725   -1.47441525343413
O          -0.02432787474828    1.25392840151408   -1.80159770731283
O           0.11671901093772   -0.76832388383010   -3.16951303618746
H           1.04072698824030   -0.48481336971492   -3.29536350232092
H          -0.31259665538503    2.07013515478154   -0.40150823605466
O          -0.35362056781146    2.47123705833508    0.50127243091534
H           0.20344395535609    3.25021237596665    0.46548559583779
O          -2.76026920202861   -0.82773744509089    0.86644673089488
H          -3.48703003016907   -0.20229596940554    0.84031898908176
H          -2.41232445844332   -0.85720296176529   -0.05655233185197
O           2.43024309060509    0.40071963988437   -2.51778800227545
H           1.79750588302495    1.12142409425392   -2.37755404088979
H           2.30819567010991   -0.17074554124804   -1.74721508101556
O           1.28420228739014   -1.50358814553122    3.23585965527294
H           1.92526834336758   -1.81211507577762    2.59007969101937
H           0.89951460587001   -2.27973555543076    3.64888022874144
N          -0.29507161342033   -0.01894411619746    1.48584534157214
H          -1.29393350727312   -0.33851891366551    1.45809091399670
H          -0.26959877359681    1.01523863862525    1.38904890319644
H           0.20533617939000   -0.36970533091220    2.31224092619072
H           0.15721915762314   -0.40532031579101    0.60287162841928
