    23
        -45.36230081  Gyration_radius:  2.38192577496 Dipole_moment: 2.024
 S          -0.65810760288601   -1.20029243312785   -0.31460103199374
O           0.15151766965000   -1.07935790818213    0.87704885888934
O          -2.04036438319402   -1.45771619908186   -0.08109429358640
O          -0.48920127727966    0.13404147731422   -1.10972347997833
O          -0.08611248593659   -2.23790267236627   -1.26517236740337
H           0.87783198023040   -1.98490504629830   -1.54592229921779
H          -0.57579904947550    0.83507090267122   -0.39354919291054
O          -0.64731356500516    1.53599407292320    1.02451725815700
H          -0.25569591698802    0.77776609157107    1.48161465409646
O           2.70043441261888   -0.36774584674560    0.36914849095481
H           2.57213826651321    0.58153429067151    0.17489573216536
H           1.86083211108325   -0.67088181618589    0.76015573951899
O           2.28800604164245   -1.62480991439207   -1.84010784299294
H           2.82390999471696   -2.42078465766548   -1.85936171789891
H           2.56826559896080   -1.11126708015183   -1.01800956119643
O           1.75539721670252    2.07901245181677   -0.38493330235661
H           1.37409836364457    1.84074564259004   -1.23400466779393
H           1.01452795770508    2.25118740755361    0.21006227158227
N          -3.17467521267221    0.82403073778832    1.25880729330220
H          -2.97318195305914   -0.06978138955517    0.80800016703808
H          -3.89441165201828    1.28552216571648    0.71664750405343
H          -3.55993712592776    0.62557818585065    2.17388999562071
H          -1.63215937906713    1.45496154724067    1.19169180193969
