    23
        -45.38134562  Gyration_radius:  2.27243698233 Dipole_moment: 3.506
 S           0.55256289654976   -0.65046339679567   -1.53648330102851
O           1.88534187855434   -0.53869167656255   -0.96150310543418
O          -0.31508341666790   -1.53271501033146   -0.79500271910398
O          -0.03054059289430    0.67304966366424   -1.75654026300025
O           0.73323979210663   -1.29521886242207   -2.97056379085113
H           1.36083942184746   -0.71235252942929   -3.38551966196893
H           0.66275320350475    1.53167021047434   -0.52264525044589
O           1.16052599381175    1.82391453132058    0.27456391665879
H           2.02765061950682    1.42515002690501    0.14551873768653
O          -2.38411162991005    1.54925859848880   -0.84996532698560
H          -1.58863685823186    1.20934781524665   -1.30775254478093
H          -2.23940984458917    2.48940925811230   -0.73174701498373
O           1.47828290050552   -1.85769270361911    1.26673967638818
H           0.79624519826574   -2.44665359474059    0.92612928386495
H           1.80759381523209   -1.40478716821083    0.45637981827289
O          -2.12404338028287   -0.49719934766993    0.87447899617976
H          -2.45188278116694    0.25713744138424    0.34543031463358
H          -1.62504221312515   -1.03802298991534    0.22869002316539
N           0.05818288819611    0.21797191318636    2.09481271750679
H          -0.91849115451320   -0.02691072382227    1.70651748578364
H           0.02652963247366    0.48521448885462    3.07191273112420
H           0.66144217530053   -0.64108650172306    1.93666875014048
H           0.46605145552216    0.97967053758162    1.48988052718714
