    23
        -45.36973961  Gyration_radius:  2.39276613619 Dipole_moment: 3.365
 S           1.04250618366340    1.31036766106765   -1.00068244821457
O           0.11775046212115    1.88928394058186   -0.02755515084621
O           1.78550243643021    2.23843370332690   -1.78658448004521
O           2.14492461259645    0.54906772785231   -0.08395615525533
O           0.38189327275867    0.23660727540899   -1.73795141451518
H          -1.12286017792868   -0.49874887804032   -1.63114040936339
H           2.93250870440896    0.92065934325396   -0.46550931924469
O          -1.95402597082331   -0.94920860454161   -1.35770198545279
H          -2.66453287021411   -0.49677677993787   -1.81386980797750
O           1.24028377018939   -1.77668101273426    1.30311695812911
H           1.88754651969436   -1.07090431346815    1.19237036920752
H           1.18604372076420   -2.19279145450406    0.41151122875653
O          -1.59044634645841    2.17285013545597    2.18842164988365
H          -1.73354464856387    3.02138827911447    2.60899244771441
H          -1.00552796472660    2.33776910143983    1.43425200849904
O           0.90377308177712   -2.34063381123007   -1.27538043781783
H           0.85477849720678   -1.39672715521943   -1.53074205174765
H           0.05574877344819   -2.71540484385578   -1.52475547992459
N          -0.90980388998945   -0.26733543871745    1.03986609432060
H          -0.13007659579102   -0.94023361926259    1.29469239382634
H          -1.52413782432027   -0.68130632555830    0.31295174456646
H          -1.43619204329793    0.06109444897851    1.84902412131599
H          -0.46211170312173    0.58923062041263    0.60063009414369
