    23
        -45.36613544  Gyration_radius:  2.6018578718 Dipole_moment: 8.081
 S          -0.40482360053481   -2.26323853186609   -1.10545250720485
O          -1.27035249896727   -1.92139339291356    0.02152594945532
O          -0.66340430684312   -3.52248934402186   -1.72496321923057
O          -0.80497103787672   -1.16842566263889   -2.25656688713672
O           0.99011645692566   -1.97311659203529   -0.80241098720283
H           1.23340617743101   -1.59487479237871    1.10361456218297
H          -1.07265679286370   -1.79289338375749   -2.92210616301118
O           0.60078020153608   -1.23553119805294    1.74380477955945
H          -0.24750636982177   -1.56730910483646    1.38411748106083
O           1.50733422354371    0.45554236262944   -1.58740115279565
H           0.94252722024216    0.52488755705928   -2.36029244713566
H           1.44095773091431   -0.49535345598988   -1.32091898275198
O          -2.13694123361152    0.51871162572457   -0.31849756891698
H          -2.15865177716041    0.56927452399770   -1.27691918498420
H          -1.94560899786871   -0.43222570700220   -0.12883708623721
O           0.82353915447606    3.32645767893071    2.40189505360159
H           0.18140213091946    3.53264294099662    3.08439539150592
H           1.69549100121903    3.37882475519283    2.79882027462535
N           0.26324879764042    1.16339460623929    0.66507647291810
H           0.46004519862532    2.01356742016470    1.20281081765355
H          -0.73871804518169    1.10808112996471    0.35807871949500
H           0.85446954273056    1.08483702028021   -0.19866080299666
H           0.45031683434870    0.29062952336212    1.23888746762519
