    23
        -45.35697657  Gyration_radius:  2.45661645912 Dipole_moment: 4.176
 S          -1.36419390808994    0.30963171984684   -1.94376804291787
O          -1.93091268720510   -0.21299700903372   -0.72191373596925
O          -1.77813420053002    1.60255358115338   -2.34547234093607
O           0.15185370453755    0.24311240152244   -1.87881837567883
O          -1.74276781035043   -0.72333642723149   -3.08138083040656
H          -1.75892281490888   -1.59279564136928   -2.68516120448164
H           0.53797394603643   -0.65937454834373   -1.38684346929441
O           0.68154130172188    0.62145539202168    2.21694770627680
H           0.69250545669739    1.11642623861860    3.03706256557844
O           2.75935769177651   -0.65294218842715    0.97468323586558
H           2.08246803476425   -0.12846904161662    1.44510170219092
H           3.12505207848839   -1.26556828954095    1.61511640641329
O          -0.72446829319508   -1.59197974493390    1.26090930966872
H          -0.29835482187979   -0.88661373127474    1.77549803212640
H          -1.37014876600559   -1.14346827972191    0.68883496176536
O           0.99331978035306   -1.74510304952927   -0.69574579951059
H           0.33053392946121   -1.85418479485295    0.04710452124119
H           1.79670620186873   -1.39349342006659   -0.24248078600194
N          -0.47935495131428    2.09524666500209    0.33620229104439
H           0.27474016332628    1.22137612374911    1.52557409711420
H           0.11035385213013    2.05968531516602   -0.48807525655478
H          -1.29132342365695    1.52881800617958    0.11126065367025
H          -0.79782445404692    3.05202075269633    0.43536436880430
