    23
        -45.36002410  Gyration_radius:  2.33179730773 Dipole_moment: 5.540
 S          -0.23663459068708    1.13323236213265    1.14128333950267
O           1.12789223582237    0.73759076615260    0.89137364107001
O          -0.58188347432796    2.44110696432120    0.69625623199553
O          -1.17624456779709    0.07960949396518    0.45133052919477
O          -0.60449649884253    0.93191835840994    2.60368794286170
H          -0.59846896289215   -0.08480738518190    2.78275954288832
H          -1.07948931349503    0.16560972509421   -0.53885224583403
O          -0.81342047260148    0.39662775822071   -2.10087392123691
H          -1.53829962952669    0.90416198865271   -2.47134557704237
O           1.20347236809876   -1.94651876288023    0.99503820033851
H           1.41139160089533   -0.99688585617645    0.94762491447013
H           0.85796106849680   -2.17796242322426    0.11530630596514
O          -0.00811452495781   -2.23966861301394   -1.48958772298942
H          -0.83298832964471   -2.72584502351325   -1.53241049580637
H          -0.18381836762513   -1.36013221978019   -1.85071069617965
O          -0.65874114164296   -1.58451764700358    2.77254876856030
H           0.09983641195658   -1.84351376712253    2.17021634523958
H          -1.46213276796274   -1.78860215490050    2.28741002041944
N           1.10726419035837    2.06926226804131   -1.61140383904570
H           1.49757602848841    1.58595782948024   -0.80479665271228
H           0.62569961895670    2.87726427860227   -1.23174258078878
H           1.86823631524334    2.38785577705347   -2.19860237276407
H          -0.02459719630246    1.03825629264438   -2.02450967810825
