    23
        -45.38150334  Gyration_radius:  2.27707337005 Dipole_moment: 3.778
 S           0.23279665556284    1.19782831209391   -0.49534929803485
O           1.21165187766020    0.58942183023169    0.42377020580036
O           0.25470741346947    0.55623917141950   -1.79411018457968
O          -1.09407963544413    1.18810747701453    0.10220711357967
O           0.66730098821559    2.68297345529564   -0.71373779416678
H           0.85185120685106    3.02248494331493    0.18261283562458
H          -1.07430396497415    0.11986849413366    1.34814645974553
O          -0.85752088708417   -0.64962133125343    1.93089997894512
H           0.06230619477325   -0.50288295975329    2.16991674090991
O           1.55396223521134   -1.66678543530551   -0.89490578393488
H           1.60177414996756   -0.87947086501855   -0.30838663163557
H           1.41444057251093   -1.27055586621326   -1.76343759137432
O           1.49816167035395    2.79345123920846    1.81303058334208
H           1.48351132586226    1.86519293316535    1.50125794854639
H           2.42120493219288    3.03200365643672    1.92263679432187
O          -2.10093255077659   -0.59760933121415   -1.71895985544852
H          -2.46584632421435    0.04776564489000   -1.10080656745932
H          -1.25512401252453   -0.17479162627031   -1.99018743030704
N          -0.89223248625979   -2.30923133340667   -0.12004403611959
H          -1.48720060020543   -1.75144220225707   -0.80725650070130
H          -1.19871532562133   -3.27208822765257   -0.03901962462546
H           0.11334468536216   -2.23140754855612   -0.45364851867908
H          -0.94105811089386   -1.78945041993436    0.80537115617248
