    23
        -45.38497749  Gyration_radius:  2.25783869936 Dipole_moment: 2.529
 S          -0.60014094721490   -1.38651127862373    1.09914149175128
O          -1.90686739784807   -0.77891055880522    1.26424815295883
O          -0.30376520698894   -1.77514227145384   -0.26372383923674
O           0.45464020956901   -0.55953410176556    1.68256686001983
O          -0.62274469205045   -2.72768269897812    1.94145432661993
H          -0.98959986543443   -2.43455647277098    2.76882344467854
H           1.87977315513886   -0.96786927480350    0.77658602504982
O           2.29929235850896   -1.23177554413949   -0.06722879956290
H           1.61938364509795   -1.80741555584202   -0.44961597707657
O           0.37571700617610    1.97080585804587    0.85140412588624
H           0.43201164695518    1.11849557394249    1.33333663247701
H          -0.54544910433359    2.01750449704556    0.54406248853449
O          -0.70884357608494    0.07680775857897   -2.13889385542186
H          -0.64484969791639   -0.73713025480355   -1.59738880499852
H          -1.33971367615028    0.63617240733843   -1.65381076413235
O          -2.11004247824170    1.36816450137588   -0.16200236480512
H          -3.00032060081090    1.71330183930389   -0.07810027956863
H          -2.08403476151133    0.54256208882772    0.39107850361968
N           1.58750712529117    1.01339751406077   -1.27316500138555
H           2.22047525414236    1.55555432708302   -1.84896210172940
H           1.21850935089840    1.56277531060768   -0.43793663619417
H           0.72183681343821    0.68915497564461   -1.80414797735116
H           2.04722544937214    0.14183137011880   -0.87772563013406
