    23
        -45.37182631  Gyration_radius:  2.39900319445 Dipole_moment: 5.915
 S          -0.27804408707906   -0.67733969781555    0.55208020784411
O           0.17629478326441   -2.03514836695145    0.73504485365575
O           1.00932992108568    0.14579280378817    0.19032655858864
O          -1.13141395565553   -0.56689701932445   -0.66403824230731
O          -0.91249156823508   -0.07684506720735    1.69721657857364
O           0.02168304082635    2.07309672983927    2.95792280058187
H          -0.39174783591672    1.25669011643738    2.60667751517249
H           0.70269444104038    1.78378161608066    3.56655922741036
O          -2.20043459692670    1.80012717146400   -0.02423704966261
H          -2.45598371410548    1.66724068336757    0.89315692121289
H          -1.95319165616377    0.91180978062129   -0.34281894079489
O           1.26529922685810   -3.30699385850228   -1.23016870769899
H           0.73186602733217   -4.09589184234965   -1.34412827616517
H           0.94241687222742   -2.88984643062331   -0.38473243015380
O           0.32677245258004    2.57160789437043    0.33406853176827
H          -0.62514639350086    2.49239441769437    0.09008396808910
H           0.32099357348498    2.67482903276830    1.30736755322908
H           0.78057698771083    1.14950522605072    0.24311889577388
N           0.74863028061445   -0.96985688630027   -2.28679559000041
H          -0.17297097136895   -0.79074566388037   -1.69184413261198
H           1.01828445412720   -1.97444260932273   -2.06589734130920
H           0.63495868205716   -0.79024785258856   -3.27903791550113
H           1.44162404570641   -0.35262018765467   -1.85992501567944
