    23
        -45.36280946  Gyration_radius:  2.42334578412 Dipole_moment: 5.924
 S          -0.70997044566054   -0.39524296505956    0.67857369673336
O          -1.30204880932640    0.30030487630690   -0.55471205529583
O          -0.03037951795662   -1.59517001433242    0.28007700851138
O           0.08044367180083    0.56542228380032    1.40112092896371
O          -1.93619301065078   -0.77511565815241    1.52704299071999
O           1.40766266199764    0.24809713911313   -2.91335687645397
H           1.24667997983738    1.09299882791882   -3.33566327003497
H           1.73589050255765    0.45464093860085   -2.00399023684037
O           2.14083312712202    0.78807110612115   -0.41525532170510
H           1.42835354888210    0.90354068090814    0.23056152572580
H           2.59869605685293   -0.02525200382069   -0.13116011130188
O           2.66962233962445   -1.65568066256279    0.68429634209098
H           1.72145114360062   -1.79898925180185    0.52245185226318
H           2.77371730256219   -1.60419317869778    1.63609233047022
O          -0.67405592870207   -1.25030280463273   -2.39705701012962
H           0.12009602664691   -0.75076988652500   -2.73317309126484
H          -0.32514746725645   -1.92306122530693   -1.79882015388581
H          -1.14492732016270   -0.31424236815171   -1.39279932686563
N          -2.42651038321187    1.65148489504769    2.18823191151783
H          -2.73755053308979    1.97675005853907    3.09408721245828
H          -1.42818118933391    1.81561753633113    2.09388565622258
H          -2.29797032102065    0.12113684507112    1.87224747087225
H          -2.91051142510562    2.16995484129719    1.46731854721943
