    23
        -45.36280969  Gyration_radius:  2.42349789884 Dipole_moment: 5.912
 S           0.34713971834242    0.97884547535810    0.22022177579031
O           1.35934609656528    0.05662401114297    0.66134041686638
O           0.66358386752724    2.37636157804812    0.78099807166174
O           0.16406906086014    1.07788201605606   -1.20004919841879
O          -0.97909344541503    0.59280064466187    0.88915121384008
O           1.52442246814155   -0.72075019717295   -2.73960894383448
H           2.44997021444643   -0.51637492326409   -2.59484557781152
H           1.01939016562742    0.00354842175491   -2.33198724313370
O           0.45492820039552   -2.16998831542001   -0.68614009676796
H           0.79608966836258   -1.50941367243542   -0.06529812682898
H           0.83993350415938   -1.91861192962668   -1.54663312756612
O          -2.16340591128481   -2.12623300399744   -1.14211693818080
H          -2.56650378943570   -2.65388300269967   -0.45128255104620
H          -1.18672640497847   -2.19330805881081   -1.00350510022645
O          -2.53796433322196    0.46118707071257   -1.04612426290287
H          -1.73092918625570    0.57214283022339    0.15496231858747
H          -1.89103739611442    0.80688234296143   -1.67393138093138
H          -2.52754469266635   -0.52819821284123   -1.16568468652236
N           1.21547457465921    1.48194509403020    3.11802438836129
H           1.95585798643190    1.80374961753543    3.72738364586923
H           1.50596549823102    0.62507508913603    2.65556066378780
H           0.39220151608440    1.28858984619742    3.67260477553256
H           0.89483260954929    2.21112725841496    1.76695997387555
