    23
        -45.37068240  Gyration_radius:  2.30524640634 Dipole_moment: 2.025
 S          -1.03479304387545    0.40409795610711    0.20821642574768
O          -0.64048525398626   -0.57200705057239    1.21434079207494
O          -1.08170014922225   -0.19002559883739   -1.12302162012984
O          -2.45340349914853    0.92362817268570    0.53499500412623
O          -0.12178175301426    1.55933232078168    0.22856522412407
O           0.24555271663666   -2.44255329434031   -1.56288090751911
H          -0.26761688745794   -3.23565666506860   -1.40348064726891
H          -0.35984708797031   -1.68631202845600   -1.39028979288221
O           1.71858922458787   -1.40272244601736    0.43671781218301
H           1.40673413286824   -1.97797760200885   -0.29205470648185
H           0.88716438839967   -1.15816357830753    0.91153608800744
O           0.91314626924185    0.09671513559612   -2.86667157179979
H           1.05513627921019   -0.84454828980953   -3.01683867197496
H           0.04145729847715    0.15138783659003   -2.42081507533572
O           2.04501838535625    0.80300859413163   -0.69539167006461
H           2.06718009797681   -0.13359944260672   -0.19455408112583
H           1.74996960510807    0.59089812543828   -1.65569852164596
H           1.17864558294630    1.25166863476277   -0.27761948787339
N          -1.47108262014792    1.63888277714444    2.82422138625149
H          -0.79541604672259    2.31898779486115    2.49813677633561
H          -2.32451828073750    1.30014466215975    1.45241969128423
H          -1.01327452264479    0.73263278799150    2.81978906231307
H          -1.74467485587343    1.87218119776351    3.77037849167236
