    23
        -45.37741724  Gyration_radius:  2.29956769188 Dipole_moment: 3.165
 S          -1.13022653924502    0.61417321947091    0.18609815061324
O          -2.12413985048710   -0.04890463115897    0.99212194626492
O          -0.13416225195496    1.32521028157232    0.98796286371333
O          -0.47537136454151   -0.32486449404712   -0.73509270125986
O          -1.80573609128122    1.71750663367531   -0.69750614801144
O          -0.76881086654325   -2.20814893766714    1.57323831820371
H          -1.39427488967359   -1.45065632252314    1.46204350765579
H          -0.77813242235845   -2.66027976219203    0.72620299150580
O           2.18022669029483   -0.61685049283962   -0.70841192608277
H           2.40585234331548    0.32686194396550   -0.79677589639498
H           1.22500286885545   -0.63963052089447   -0.92165536578191
O           1.91079274645292    2.08209440458201   -0.55247787432595
H           1.14392862384044    1.91154510430637    0.03242495380812
H           1.64138981573445    2.78638887384240   -1.14308208146126
O          -2.46392718186730   -0.16486016796424   -2.44827511867545
H          -2.31134366661121    1.21758982845714   -1.36783535880379
H          -2.14647011180790   -0.08293571370855   -3.35041404791149
H          -1.70830767232555   -0.47815538073605   -1.91172948083680
N           1.37621767427434   -0.67233102988198    1.77007810159521
H           1.90411008069821   -0.76428100341424    0.84057825058871
H           0.84245445103053    0.22986106224138    1.67070710775562
H           0.62839554851486   -1.42063003418381    1.80911942796355
H           1.98253206568084   -0.67870286090281    2.58268039988592
