    23
        -45.36899712  Gyration_radius:  2.30856667043 Dipole_moment: 3.130
 S          -0.64221195412615   -0.87128433423819    0.23062809620326
O          -1.54104491065781   -2.04125415801182    0.69124492982609
O           0.10146911936508   -0.39519339566309    1.41021983370876
O           0.28038044204904   -1.34382607560772   -0.79028859917385
O          -1.51948377523174    0.18199488485845   -0.27024918219909
O          -1.09745842969510    2.63907531753993    0.51917555752104
H          -1.38108590804377    1.72790749849478    0.25308256227091
H          -1.54775858188138    2.82873760830070    1.34388088703230
O           1.52880590559101    0.79881273983743   -1.59559439873429
H           1.18855215273517   -0.11374684757911   -1.40983220165595
H           0.78630038970628    1.22919202340458   -2.08885243666863
O          -0.81740197615949    1.72012088337058   -2.38415461684230
H          -1.06169722560372    2.56866508265977   -2.00514781441870
H          -1.22654829631740    1.04742488948739   -1.80817561934937
O           1.28909057513692    1.66504879300359    0.70275913299291
H           1.50857747307187    1.35048097043754   -0.34586456547721
H           0.47394575600689    2.25482268802463    0.64716979546538
H           0.88988965506111    0.78082401074890    1.11050251849515
N           0.64891051713025   -3.32683234919748    1.21248985216043
H           0.97682631463702   -2.91882468218536    0.34184414798455
H           1.04291509608061   -2.78420759570398    1.97069611336302
H          -0.86279344878033   -2.71791720792466    0.98219805876465
H           0.98182109992338   -4.28002075405079    1.28226795872359
