    23
        -45.37376555  Gyration_radius:  2.33186818785 Dipole_moment: 1.662
 S          -0.60371066345745    0.74652198687611    0.61872863393550
O          -1.55588008480949    0.27435467477273   -0.37955587823251
O          -1.39173548336037    1.72236328597123    1.54835681164189
O          -0.08602757377504   -0.34956574082722    1.41714680194685
O           0.48584109048901    1.51076825855412    0.00142127746790
O          -0.22862642287560    0.68798386113913   -2.76180491567475
H           0.51312804210537    1.24304917350081   -2.51226004485384
H          -0.86020486602802    0.77255972733387   -2.03343007103393
O          -0.59176815688517   -2.91846114914924    1.05856443322005
H          -1.39792968896624   -3.13509530856258    1.52904626530809
H          -0.37342985590929   -1.99181341814017    1.31503502895372
O           1.94463012009620   -0.62735348021464   -0.53828282559649
H           2.03356711116326   -0.98039711272266    0.35219223669545
H           1.52685705823085    0.25169762454863   -0.40968396751644
O           0.83748168217494    3.02604114240979    2.11673037322116
H           0.85444432970622    3.95867387254955    1.89009030173517
H          -0.70264197857378    2.24227206781693    2.01217011836539
H           0.98344286284884    2.53337126467381    1.28359985859237
N          -0.28298920507646   -1.82558777259675   -1.33271111577654
H           0.69405085466241   -1.43323392114414   -1.19951008840398
H          -0.43702876352770   -2.55987090415872   -0.60799661220527
H          -0.92272691695739   -1.02340429186510   -1.07798397214270
H          -0.43874350131188   -2.12487382084634   -2.28986264961907
