    23
        -45.37376557  Gyration_radius:  2.33171203612 Dipole_moment: 1.661
 S           0.29683906221407    0.47284167672015    0.99633646061919
O           0.33815507791696    1.54852635023434   -0.00036833553574
O          -1.06701632141229    0.01089212544376    1.22576085147865
O           1.17082799262382   -0.62295115688452    0.61910894685215
O           0.79020251607634    1.07122018991308    2.35127506246160
O           0.43561707409725   -0.09854704276703   -2.06594003617116
H           0.40323980028997    0.63458852129176   -1.41373846755435
H           1.23009165542432   -0.58853017412913   -1.83291077124355
O           0.43811950258315   -3.12437707216076    0.18313527718780
H           0.83007144474603   -2.23867799985535    0.36733466965701
H           0.44381705937198   -3.59012301488563    1.02054422404809
O          -2.47260413002598    1.13816557564738   -0.86192324829867
H          -1.85596008426388    1.77639069059491   -1.22660027243090
H          -2.13895171978285    0.94812595337710    0.02645788084405
O           2.45327626666048    2.67819091587486    1.06934609118289
H           1.76530087408415    2.39231055455348    0.43448096578176
H           2.32546789469772    3.61967646508962    1.20638108256616
H           1.56325666990918    1.62598212654169    2.11673426841708
N          -1.42192384159959   -1.55674146999773   -0.86130074946488
H          -0.80377757460471   -1.00370845067438   -1.52342503129621
H          -2.35211822711464   -1.69301342441764   -1.24359070152024
H          -0.91599915426660   -2.43170454446398   -0.60365204967990
H          -1.45593184761902   -0.96853681501908    0.01655389211717
