    23
        -45.37905382  Gyration_radius:  2.36288684119 Dipole_moment: 3.633
 S          -1.27787488438731   -0.10433907373163   -0.24756006784533
O          -1.29611942596342    0.51019424740672    1.07700405603363
O          -0.77924588295640   -1.47589372309720   -0.18304643654943
O          -2.74074086905610   -0.14760435784418   -0.78321103851776
O          -0.51532475827152    0.70667738649523   -1.18626620544140
O           1.12177761345327    2.60589225805863   -0.36756071395875
H           0.65684152183747    3.44240182211201   -0.32011644991698
H           0.47395370362611    1.96104591036513   -0.74050674746426
O           1.98527341505605    0.06259240247214   -1.98530132758185
H           2.35808330423864    0.94487915850942   -1.91568112204364
H           1.02134329870651    0.18278415257166   -1.89612900816576
O           1.84060998190127   -1.33426030711891    0.29919981205518
H           0.90938185474458   -1.59912576261219    0.14760533585675
H           2.12303982764361   -0.97721022334673   -0.57020179939997
O          -3.11897670033016   -2.39868595207873    0.54041228274936
H          -2.15306917342923   -2.28103039718286    0.42734115104880
H          -3.14868015958960   -0.87769580469521   -0.27302322072924
H          -3.36270141249914   -3.16423623411844    0.01489027049366
N           1.20588745039183    0.80199397542002    1.62718350592020
H           0.14265466323104    0.68779843651450    1.56533354039277
H           1.52545202913612    0.93106849732257    2.58040092775732
H           1.60462409747469   -0.09423864003406    1.17074865619141
H           1.42381052503724    1.61699221862260    1.01848458911771
