    23
        -45.37905383  Gyration_radius:  2.36286089893 Dipole_moment: 3.633
 S          -0.32020994231779    1.19366284929614   -0.42178891221542
O           0.37936644974460    0.55984464000169   -1.53662202992740
O           0.60356788570259    1.51580731378441    0.66237146540511
O          -0.94548936893930    2.52428782467491   -0.93872681898508
O          -1.42390552108464    0.37602422459071    0.06163667839612
O          -1.31804505017402   -0.86223389021686    2.38828674740859
H          -1.68553018787624   -0.30380679521150    3.07483715224591
H          -1.44938266946780   -0.36855691396071    1.54351146072391
O           1.04398359135015   -1.89993572435799   -0.74684054815890
H           0.91722074970629   -1.04674481536857   -1.21194544243757
H           0.14284500083624   -2.28821749452561   -0.72828140979930
O          -1.58649109532339   -2.28331770633132   -0.39360509181629
H          -1.66539909408638   -1.31145586971140   -0.42173464618751
H          -1.85942138341464   -2.53404451774650    0.49235015394533
O           1.16185490640553    2.86841107370949   -2.48894906271894
H          -0.22132020634996    2.92895778468312   -1.45988590271557
H           1.11788620445599    1.91774633355706   -2.25662748112441
H           0.99079690850036    2.92573012021630   -3.43186291694901
N           1.25189138968793   -0.79957641759800    1.59325688800281
H           2.08759919234058   -0.92920087669166    2.15200115872128
H           0.38187249107329   -1.02633015961871    2.11656873222855
H           1.12652006129745    0.21582424529231    1.27614969460926
H           1.26978969793367   -1.37287523846651    0.67590014134736
