    23
        -45.37104322  Gyration_radius:  2.44481281258 Dipole_moment: 3.120
 S          -0.73467417221308    0.23428291584998   -0.96360001021711
O           0.27292365414257   -0.80870848873675   -1.14497267163182
O          -1.75381868584645    0.24324491810240   -1.97985872987768
O          -1.25499397456867    0.20095636513700    0.40351581569659
O           0.05061111593178    1.61176854259852   -1.04154147828405
O          -1.11597800784614    0.96938855073580    3.09052605133529
H          -1.77689688215884    1.54110446365150    3.48281666267605
H          -1.35590137201006    0.87926489993707    2.15579883749919
O           0.42882907769006   -3.02527177635663    0.35540296407128
H           0.41683758116171   -2.31068306683299   -0.31631960091594
H          -0.28205668221423   -3.62227332840225    0.11953504877322
O           2.29626314894615    0.31062059287686    0.14603192241788
H           1.71604385383771   -0.16405994006187   -0.48811630830669
H           2.09542715387069    1.24030743077196    0.00777792369501
O          -0.34712525630181    1.66201586560628   -3.64098553722949
H          -0.88324737410362    2.35634789368495   -4.03058502081731
H           0.09172121108195    1.79173935589433   -2.00405934209742
H          -0.97523701073433    1.00289278267394   -3.27185771947652
N           0.64048262224148   -0.83662499162630    1.86594386672778
H           0.49987678688751   -0.60116364193149    2.84576272484654
H           0.66092949801996   -1.85137152380983    1.65897341434675
H          -0.17742223310593   -0.44178096759661    1.30607931169994
H           1.48740593730977   -0.38199684224741    1.44373186506228
