    23
        -45.35943436  Gyration_radius:  2.48866072532 Dipole_moment: 7.056
 S           0.13606555867188   -1.04798440282102    0.86668231367233
O          -0.06038300875659   -2.26447439600411    1.77136552810428
O           1.24899502772359   -0.27170804896728    1.31912569918054
O           0.19821265626831   -1.47621078965501   -0.51338906471081
O          -1.17861125177855   -0.27033976071704    1.07055981296859
O           1.39431519014847    2.38356949385977    1.19937959858348
H           1.47679343200930    1.41031059566729    1.26596172137753
H           1.65518254979119    2.73987867219718    2.04995803421644
O           2.32213352394300    2.56029528542726   -1.53141125406872
H           2.18507263874678    2.65506542520542   -0.58223057128390
H           1.69207331900552    1.88800000331231   -1.81733536333803
O           0.24896509546437    0.64099973362884   -2.11171787653034
H           0.24161218121226    0.38109027950566   -3.03451696543625
H           0.31472187954019   -0.18132153783085   -1.58263242736729
O          -0.94857299037316    1.95770294381078   -0.06187504752291
H          -0.62904871221650    1.69283609117419   -0.94347941126061
H          -1.14941389040069    0.67658670870125    0.62500100186734
H          -0.17060830967812    2.34301817646590    0.39126160850935
N          -1.89434135720273   -3.23665196007008    0.28506787676416
H          -2.07142977023360   -4.21571901879551    0.10397987142634
H          -2.77407020420350   -2.75754178220327    0.42334923174338
H          -0.82355011287331   -2.78514012273099    1.31475007631885
H          -1.41411344480682   -2.82226156915342   -0.50785439321509
