    23
        -45.36899705  Gyration_radius:  2.30864619877 Dipole_moment: 3.129
 S           0.16265859949497   -0.37461568356971    1.02830789124044
O           0.19038600960589    1.07518167570531    1.14679335597329
O          -1.12668252736842   -0.81683533969363    0.46860180625926
O           1.26420625059699   -0.87796059632865    0.21400731068848
O           0.29913083238829   -1.00692075346965    2.43203591476418
O           0.18741693969440    1.93954652044872   -1.31310769188205
H           1.10777647536975    1.67723312862405   -1.56596348015541
H           0.16864257136480    1.80972668650110   -0.33035604878945
O           2.48951988845480    0.68327635630524   -1.62654907797468
H           2.27186756854481    0.17504563586605   -0.82282238733519
H           2.50143885434788    0.04271203401296   -2.34268668787359
O           0.73787841041331   -1.75900008651932   -2.19131377044762
H           0.48686453062949   -2.68410374421376   -2.18282798603345
H           1.00202820191790   -1.53611172413405   -1.26284342091882
O          -1.16842570157588   -0.04092181555959   -1.88758446458921
H          -0.48806735178846   -0.69686072788277   -2.23719450182958
H          -1.30078671394882   -0.37244566084262   -0.89738101696707
H          -0.61537075668077    0.91631192875738   -1.73256026550383
N          -1.75200707757550    0.42293045681440    3.11664430020782
H          -2.49315247634984    0.02392428662036    2.55447913242421
H          -1.30451006821453    1.14773585260870    2.56308319784535
H          -2.15547419721092    0.83678134485729    3.94742388985975
H          -0.46533824210666   -0.58462977491148    2.92181401103010
