    23
        -45.37096434  Gyration_radius:  2.41264781102 Dipole_moment: 6.271
 S          -0.68811838386052    0.50647459394245   -0.10186057244308
O           0.44420783553406   -0.12449542658589   -0.98688705138612
O          -1.87561054527224    0.49114966555539   -0.91986514657042
O          -0.81631324493163   -0.43007497388841    1.04289144501836
O          -0.26044219884517    1.81880038497158    0.33432313771954
O           1.13781600124866    0.95861641921919    2.43846580288923
H           0.58602266107770    0.20354438032803    2.66209405162236
H           0.58977232993879    1.46398654097600    1.80769782495907
O           2.07427416509244    2.94723616763561   -0.40320480993505
H           2.22697046528238    3.64924035362041    0.23202206983683
H           1.15382550531654    2.65358877280418   -0.26079154342390
O          -2.95515599255697   -1.72478463897646   -1.71139921442307
H          -2.59639238964358   -0.81196771043591   -1.54839269608529
H          -3.84912426876192   -1.71320068658966   -1.36433948138380
O           2.59192572044641    0.38542020073161    0.25804418387491
H           1.34526396456414    0.05273840412799   -0.52896914234628
H           2.71331584600565    1.29703519757510   -0.07751599142401
H           2.25147249326527    0.50629905918547    1.17326486868678
N          -0.80794612452762   -2.47908952174776   -0.40853260398690
H          -1.72074565548006   -2.39578975614478   -0.94263481627691
H          -0.04929891014633   -2.18823601403865   -1.02850491671852
H          -0.84319680088344   -1.66272867830060    0.35499052836354
H          -0.65252245268368   -3.40376275376020   -0.02089590665121
