    23
        -45.36842735  Gyration_radius:  2.29890833942 Dipole_moment: 5.031
 S          -0.69351187923947    0.35334381088453   -0.07075081361904
O          -1.69326421661216   -0.02757897531416   -1.20889202233419
O           0.05737688932872   -0.88622114573401    0.22907359628105
O           0.18852615651934    1.35412552212548   -0.65126550141220
O          -1.42380667659954    0.80279688745317    1.09010017038667
O           0.89121878859201    0.62461011696386    2.48086045648121
H           0.01730614410878    0.84951170075605    2.11349771800059
H           0.91318417008342   -0.33577202791908    2.49746630644218
O           2.57538815274756    1.41077232492493    0.55536325012047
H           1.83220081753720    1.78888101393118    0.05023860399133
H           2.17120579566738    1.21084308557954    1.42967392313633
O           1.20620177203167    0.17848317812868   -2.75164789335816
H           0.50661989913731   -0.33932030931752   -3.15475046808738
H           0.75923890852328    0.77902167204162   -2.11067355301259
O           2.35236961857570   -0.76658454590885   -0.65653332922019
H           2.11454926810572   -0.47999764601651   -1.59869257456940
H           2.62561458311573    0.12803369747840   -0.14743243293504
H           1.37938192549290   -0.93816455862361   -0.24067967829756
N          -3.26655872202650   -1.23852197159343    0.47438341734916
H          -2.40224993350216   -0.56205843848538   -0.74274197911133
H          -4.27542497282971   -1.19187789850230    0.53353046823165
H          -2.96867189147731   -2.15986034433865    0.76659780647044
H          -2.86689459727773   -0.55446514852153    1.11327451905476
