    23
        -45.37997264  Gyration_radius:  2.33294560682 Dipole_moment: 3.124
 S          -0.27983050025252   -0.48705757846596   -0.76368844717809
O          -1.27343466856933    0.14101525789325    0.08873801943916
O          -0.31610653428825    0.34967501557712   -2.10374611590487
O           1.07433586984640   -0.29882495191182   -0.21837949475955
O          -0.54924832603842   -1.86972011792297   -1.07823345796095
O           0.35326319374719   -2.08587930217164    1.66419483968519
H          -0.24852155708365   -2.62072623737585    1.13943886223022
H           0.83479479520580   -1.55624158502746    1.00800355211638
O          -0.81198194811601    0.10515940250872    2.75956402129122
H          -1.35837950528211    0.15420534682783    1.95656871481311
H          -0.38559407181352   -0.77177064525684    2.68289697594296
O          -0.70892475290598    2.69114641971038   -0.27780139139261
H          -1.12101399293209    1.80488591034313   -0.18482247401698
H          -0.43367902462181    2.73530757139561   -1.19615265725571
O           0.50535213019623   -1.75081544683880   -3.47303847479733
H           0.08062663682061   -0.23817635003816   -2.78126191581551
H           0.20224592515714   -2.08018976473711   -2.60105631616407
H          -0.09406308636192   -2.12188802118814   -4.12461059287036
N           0.93650504611746    1.61132836115364    1.52553761757342
H           1.75559689095790    2.00734472406048    1.97228596041481
H           0.27553024731370    1.12016509780361    2.21152284993369
H           0.38783118877762    2.31087528708315    0.97618341582988
H           1.17469604412902    0.85018162656118    0.81785649884935
