    23
        -45.36668401  Gyration_radius:  2.34798187074 Dipole_moment: 6.446
 S          -0.55311007939525    0.41379366763899   -0.40187237147712
O          -1.21230823008495   -0.62896455289791   -1.20294435869678
O           0.85770524657981   -0.22389236898914   -0.07291142096037
O          -0.34983543396220    1.64236712602377   -1.12047743412730
O          -1.20241692957327    0.58137352767559    0.89167273468939
O          -1.38205671837198   -1.71802557484928    2.07650939432497
H          -1.31349287995020   -0.79671730315767    1.70370257791034
H          -2.30604034044533   -1.83253545645133    2.30680084540419
O           1.13337589498878    3.47459405745953    0.10481566079547
H           0.49655452620949    2.91624151232418   -0.38961779861042
H           1.81818981234086    3.71613006912453   -0.52126019125554
O           0.66490565371724   -0.15816535839397   -3.16053629046232
H          -0.10393866894930   -0.41341076116375   -2.63626144560402
H           0.75183504886314    0.78478410384440   -3.00261506098124
O           1.25140843778827    1.43821339274748    1.83097847918011
H           1.35980320111903    2.29069296254519    1.35532125131488
H           0.30181043097004    1.36460460520617    1.99720055314912
H           1.21187480351329    0.35946988654141    0.66384432732262
N          -0.27302041018107   -2.69475985821727   -0.08718908076347
H          -0.69497698557337   -2.51820714777866    0.87232586830823
H          -0.45721851087242   -3.62392820871686   -0.45158867160034
H          -0.72279478028504   -1.89223264182805   -0.69163421543531
H           0.72374691155343   -2.48142567867819   -0.06426337243556
