    23
        -45.36899721  Gyration_radius:  2.30847163326 Dipole_moment: 3.135
 S           0.25772916677079    0.51086658168064   -0.94718684823508
O          -0.61002215752708   -0.66105826218383   -1.15901113673651
O          -0.43638411808106    1.51609156567716   -0.15708702517410
O           1.51482193310997    0.10143456341429   -0.32910156068742
O           0.59534677753126    1.09413152754382   -2.33819338399657
O          -0.70111676852478    0.43395092533797    2.20046013720693
H          -0.71819037221622    0.99407905122152    1.38260145700038
H           0.24401493145455    0.47444899593690    2.49193581614511
O           1.64579673704640   -2.25949653729286    0.78816666949803
H           1.70602572842563   -1.39735797074823    0.30388914220392
H           1.87906212417953   -2.93905481755800    0.15365012483766
O           1.93589866899188    0.36693705423223    2.33117486365436
H           1.94327092761865    0.48892128143627    1.36331584840484
H           2.30738856546542   -0.50571914290906    2.48506500318902
O          -0.87252736663367   -1.74615461837164    1.05676002610206
H          -0.89000165562291   -1.35437635411403    0.08008670653817
H           0.06297946490887   -2.11590121520509    1.11553744375625
H          -0.87029921305119   -0.81484841139197    1.67264356207769
N          -1.93402274133941    1.61192324085518   -2.57196803907515
H          -0.30823018226919    1.37208791057100   -2.66797731975466
H          -2.54500826585526    2.25388931790179   -3.06052749702091
H          -2.34160955117824    0.68586562006345   -2.59706462846017
H          -1.86492262321524    1.88933967390459   -1.59716933146815
