    23
        -45.37846657  Gyration_radius:  2.34636017917 Dipole_moment: 3.449
 S           0.07708168678453   -1.00322886218735    0.41242876000654
O          -0.85517471893114   -1.22362206544390    1.50735263755910
O           1.16607681431246   -2.12507957129440    0.47660631205721
O          -0.54825486696246   -1.12715823385704   -0.89802632070403
O           0.76754492143467    0.27833289289253    0.53958822845704
O          -2.76178078171496    0.21844249463080    0.30995208502363
H          -2.81874417948689   -0.32889014291606   -0.47717294204845
H          -2.19060510541659   -0.29127548493596    0.91501283454863
O           2.41047617001500    1.08741358602671   -1.34174423379588
H           1.93042709216311    0.69865756745017   -0.57237441582067
H           2.89466507547526    1.83895610567063   -0.99522481079401
O          -0.99988507682573    2.19888761951645   -0.12817165652337
H          -1.81657522616480    1.69387864233170    0.07116548635268
H          -0.30382403173542    1.70375614573716    0.34528417734537
O           1.04798747997290   -2.04601545925903    3.11692532773210
H           0.22669376102732   -1.63571751910805    2.77739791024300
H           0.78066994993012   -2.84389872004187    3.57909502369009
H           1.39395396849245   -2.18777612620409    1.42682246286352
N          -0.08695106092957    1.03290102890571   -2.26300219712658
H          -0.54184651504462    1.68984109891975   -1.54620856960399
H           0.94717783062139    1.16237759711732   -2.18850495618743
H          -0.28387001267080    0.06637568974877   -1.85908129017012
H          -0.43524317434025    1.14284166629857   -3.20811984309394
