    23
        -45.37846664  Gyration_radius:  2.34650864394 Dipole_moment: 3.450
 S           0.24557509265368   -0.28073556456651    1.02124737412367
O           1.26324274916313   -1.31878186812046    1.07907085314068
O          -0.78325723625062   -0.58644567161114    0.02958440322578
O          -0.45895129348220   -0.22156596985997    2.41717112911127
O           0.80266706245608    1.04710906793117    0.79755781163134
O           2.58776606475842   -0.27997320942496   -0.99822652098863
H           2.22777630479415   -0.82494593189708   -0.27327529802702
H           2.75949723595145    0.57192431545177   -0.58928700314788
O          -2.69773948566192    1.14052654653225   -0.46556498843167
H          -2.08081005372174    0.43773170194092   -0.15084302326595
H          -3.36035353569979    0.69006723138734   -0.99225217108936
O           0.29816611706748   -0.13687955637992   -2.39670793122484
H          -0.19257721567672   -0.55634754213377   -1.66390047700723
H           1.23747222628390   -0.25287058395383   -2.13985457426093
O          -0.21493736295246   -2.84660390792027    2.61846167598787
H          -0.60222113033248   -1.16009603867299    2.65684660670808
H           0.42745144509746   -2.54650982098801    1.94363144903805
H           0.30231215245678   -3.19483659754002    3.34842237262971
N          -0.35276893663264    2.11176669804217   -1.26962163376485
H          -0.07074110045200    1.32551464211973   -1.94381481306517
H           0.14317025674586    1.84020213470313   -0.36608098863884
H          -0.10769718078728    3.04166952401105   -1.58876743444265
H          -1.37304219577990    2.00008042095100   -1.07379680824484
