    23
        -45.37914116  Gyration_radius:  2.33056227775 Dipole_moment: 3.740
 S          -0.02327998610982   -0.65704544237690    0.67708040530295
O           1.09247173335098   -0.55471723908246    1.79070757441429
O           0.69898762983431   -1.09637737467122   -0.52074843306018
O          -1.02279760125194   -1.60324157868048    1.11415086320901
O          -0.54444122939276    0.69300645148678    0.50188212424899
O           1.70445785561217    2.05045753279862    0.40074128755163
H           0.80391279268556    1.69476398215885    0.57152366799678
H           2.28022461459158    1.54392382326681    0.97815079863557
O          -1.74089418041975   -1.34424212413786   -1.66119843909879
H          -0.81847968629160   -1.46673386196102   -1.38677165410856
H          -2.25023630038475   -1.58016245598250   -0.88097755393503
O          -1.41542566499693    1.33381275983428   -1.96263256492298
H          -1.73048350279473    0.42314252523168   -2.12640215175322
H          -1.34933958136752    1.37112723041359   -0.99080177670125
O          -0.58176861681479   -1.31876355872528    3.67472199974720
H          -1.02797558291280   -1.49681097812962    2.82001313654551
H          -0.43140643758835   -2.17360604624136    4.08480197694335
H           0.63531642443299   -0.72987166096196    2.64209626075494
N           1.17314121034221    0.99627114889326   -1.98531123965085
H           1.73597750268492    0.97537701380031   -2.82794428046668
H           0.14774689110545    1.26189435198938   -2.16279519963619
H           1.10588511812565    0.05046950831327   -1.50493555842827
H           1.55840662755923    1.62732597277077   -1.24535124359037
