    23
        -45.37914126  Gyration_radius:  2.33036917285 Dipole_moment: 3.739
 S           0.32867019124655   -0.78674143162021   -0.40565438186240
O          -0.74259941011558   -1.89342050523381   -0.75670618148775
O           0.02652422504720   -0.34782962420682    0.95120054258344
O           1.64563913720170   -1.36378969323730   -0.53955986186698
O           0.07066177151012    0.28666120660968   -1.37035333384073
O           0.59297638010310    2.21702819764851    1.53800465778359
H           1.37184301663412    2.21665438291415    0.94740684063977
H           0.43874282827335    1.26780347763825    1.69733070943302
O           2.32193645433517    1.43008227048516   -0.40102316437055
H           1.60355665794333    1.11216424489871   -0.97021414819117
H           2.81024664495423    0.63380575290778   -0.17437713444803
O          -2.58068469882109   -0.05984416411658    0.77842371459642
H          -1.65123367225016   -0.26832069776006    1.02214511009570
H          -2.82427716492563   -0.73770195684555    0.14384512724398
O           0.91435697350197   -3.83690351600944   -0.11302187090690
H          -0.33662503068097   -2.74870103096288   -0.49565075381854
H           1.23096736348780   -4.40541933002669   -0.81882499251120
H           1.45194498055193   -3.01801702404559   -0.15546943662225
N          -1.36299047944456    2.10155020891074   -0.18716033865337
H          -1.74954296394112    2.90895406118218   -0.66245836130450
H          -0.82227514498895    1.45529493799709   -0.83505899889590
H          -0.64613491809905    2.35500469361221    0.57136275573100
H          -2.09170314152239    1.48168555926007    0.23581350067594
