    23
        -45.37997264  Gyration_radius:  2.33309225457 Dipole_moment: 3.123
 S          -0.20521323929154    0.62408199951207   -0.68266209905060
O          -0.31505732132689    1.02114309102660    0.70964193509269
O          -1.35780353099017    0.94708106076506   -1.48935037827107
O           1.03570174480932    1.43334633977396   -1.23249791691279
O           0.16824622341811   -0.79498793391029   -0.79633966816426
O          -2.34612103697217   -1.31815300871707    0.01724222075188
H          -1.47778285093169   -1.33406568067834   -0.41712027721681
H          -2.78782025280067   -0.55633194308363   -0.36762836354646
O          -1.25909729083741   -0.82751227867669    2.45326346354841
H          -1.84998696918410   -1.18805609908721    1.76208370079700
H          -1.07113887320807    0.07146657734478    2.13370004187220
O           2.20677665012312    0.88817530274480    1.47000675280349
H           1.27586435041008    1.13319660698607    1.27687517637408
H           2.69683550574028    1.16506737924782    0.69263574844164
O           0.02517658898336    1.38906622106332   -3.66950655802917
H          -0.22626238568350    2.22722279193231   -4.06428215408287
H           0.92209906677580    1.44332284573860   -2.20665645194973
H          -0.69937021289771    1.14558219178165   -3.05588432866961
N           1.07978464788021   -1.53128190193170    1.51368565446099
H           1.50204522249444   -2.43877493717550    1.67331476504203
H           0.17587094917497   -1.38080683651245    2.06971965578390
H           1.72789116329014   -0.73502290737980    1.70843698235726
H           0.77936185102450   -1.38375888076483    0.50132209856863
