    23
        -45.37914131  Gyration_radius:  2.32986867483 Dipole_moment: 3.730
 S          -0.26089320744121    0.62708109331125    0.65780147164007
O          -0.12718759652494    0.16176329735427    2.16157929366229
O           0.98239758374372    0.23925045147009    0.00286417142953
O          -1.38926681179052   -0.15029937292682    0.13660014432356
O          -0.49689551330444    2.05159778317561    0.63716307146016
O          -1.16624607117153    1.38265468681731   -2.08074221506258
H          -0.85096110891840    2.19365817273147   -1.67241349323080
H          -1.49651223824290    0.85639296870273   -1.33571242789823
O           1.23896425028668   -2.21663847109154    0.90461772449536
H           0.84425848890221   -2.16127427173279    1.77790696307830
H           1.34622719770544   -1.28190474661346    0.61909901742367
O           0.81698201168120   -0.39440581190855   -2.60743362057934
H           0.10799921510174    0.26143358538757   -2.75791518393394
H           1.22606963450110   -0.08789758948212   -1.77742872619794
O           0.65688975664533    2.55662334291932    2.92802659135053
H           0.25669376101862    0.92682713898190    2.64286620719717
H           0.31339647119171    2.65695937516297    2.01518408517547
H           0.06850489619804    3.05991910357160    3.49555009598225
N          -0.42971598252345   -2.18107562474897   -1.16925219286503
H          -0.99282047653553   -1.44487961467013   -0.64904023976735
H           0.25933540157313   -2.51940641356859   -0.45859344156833
H          -1.00390622388052   -2.92143483875644   -1.55581127625284
H           0.09668657178394   -1.61494423408517   -1.91491601986121
