    23
        -45.36510548  Gyration_radius:  2.65239263502 Dipole_moment: 9.014
 S          -1.22599340415641    0.05897362305224    0.47667187636254
O          -2.24842182259642   -0.17399606188392    1.62208637771022
O          -1.51007137286958   -0.90224196930536   -0.58674706468060
O          -1.35138750283256    1.43719597447400    0.02958457313948
O           0.12286149045840   -0.17491950712377    1.02427069662375
O           3.00496537875936    3.32244300836531   -0.89332723409436
H           3.89604475687501    3.20925320428318   -0.55582976301283
H           2.69839307492301    4.18962493123917   -0.61889641527458
O           0.24073336524411   -2.56335804431904    2.15638545915714
H           0.28535608185515   -1.68941383504528    1.70719521317807
H           0.33059599120181   -2.38089755691606    3.09333318107035
O           0.07725022029041   -0.46039097893992   -2.62960234026219
H          -0.50642344334547   -0.27319769906499   -3.36679820703171
H          -0.51747386733500   -0.73811062597780   -1.88811597410454
O          -2.29231331176560   -2.72107916799730    1.25418703494421
H          -1.40593605990902   -2.92346615305731    1.62095190236687
H          -2.40924736511945   -1.16525208061851    1.63183823412251
H          -2.12889677570087   -2.45441292683038    0.33602236943648
N           1.03553418392414    1.31026953070008   -0.90589089263670
H           0.89773610611209    0.71743182008006   -1.75898089512977
H           1.78570605586914    2.00801219423741   -0.98307469816036
H           0.08256141930583    1.70791423842473   -0.66962014077537
H           1.13842682081174    0.65961810222672   -0.09564327294422
