    23
        -45.36510559  Gyration_radius:  2.65219853178 Dipole_moment: 9.011
 S          -0.71297002013663   -1.07842224530630    0.24839101095000
O          -0.40491483206362   -1.60700140177851   -1.07094506229852
O          -2.01749721362554   -1.75565727844513    0.74968791297455
O           0.34243430386206   -1.35250043193265    1.22121702299417
O          -0.96303640108115    0.37237202486969    0.16679343793731
O           2.62013077341457   -0.37402097895912    0.35901285031986
H           1.79859278163000   -0.71987869733109    0.79033921174476
H           3.21099952617451   -1.12659992896633    0.29805254813009
O           1.21629907611075    1.91022082741007   -3.96644016416213
H           0.82580425397149    1.47745381630323   -4.72902626077317
H           1.06478808800345    2.85329821191584   -4.05828851540912
O          -1.86628498528325    1.26772849450028    2.48690704419985
H          -2.77799919973753    1.50811252110056    2.31302157376058
H          -1.48430972358530    1.01610000013933    1.61609634162774
O          -1.47350874890464   -1.29370126043730    3.22281980273600
H          -1.98369097424135   -1.68053869623735    1.75052490375902
H          -0.56416278342235   -1.39211519430060    2.89991527359506
H          -1.64151559528092   -0.32789071559233    3.21697732121010
N           0.99206275476081    0.49411181968688   -1.54374876031398
H           0.26953977049500    0.91058677923446   -0.91522031631165
H           1.16332809448682    1.03183592485245   -2.40234706462957
H           1.84318270155908    0.31935113496764   -0.95782822849895
H           0.54272836291923   -0.45284473571261   -1.69591189354466
