    23
        -45.37700204  Gyration_radius:  2.38450964349 Dipole_moment: 7.037
 S           0.43622518459650    0.08949616347235    0.87348630457807
O           0.00733818817164   -1.26455454438724    1.15504730665386
O           1.57997122480843    0.44876713293361    1.84609297320995
O           0.97011863192492    0.17910999114187   -0.50361366502079
O          -0.64392792096718    1.05897676162895    1.04066815304969
O          -2.48706624597230   -0.40644199872225   -0.09671349093775
H          -1.88434911528942    0.25383285124582    0.32603111192443
H          -2.65176347083158   -1.04924457493999    0.59760188551817
O           1.42689991896738    2.76865913430213   -0.92292274675636
H           1.35820350012511    1.79520074305191   -0.83340836395470
H           0.63123505873076    3.05153093084655   -1.37748070676507
O           0.18401627774586   -3.44288952413854   -0.28963500705972
H          -0.24883312076157   -4.15214645291806    0.18816544532592
H           0.27012529670081   -2.69720761838935    0.35062849485627
O           1.11428103704473    2.97160973926511    1.74544699723023
H           0.19935522317341    2.65997612540845    1.66432361952756
H           1.57054151648585    1.45007381047946    1.91793312700930
H           1.40233525856672    3.14428693605683    0.82529788325933
N          -0.66010598674190   -1.38515153486019   -1.74540330539376
H          -0.75580613495966   -1.34031409246728   -2.75384928913755
H           0.11081165595754   -0.73715242827605   -1.37590762755667
H          -1.52383414529166   -1.05560941271521   -1.22816655600834
H          -0.40577184211459   -2.34080815790111   -1.40362254353312
