    23
        -45.36554759  Gyration_radius:  2.64952155775 Dipole_moment: 7.622
 S          -1.02221786299264    0.70541578930364    0.31317171195352
O          -1.20872420871876    0.59757300721004   -1.13762095847120
O          -0.43543716403307   -0.53829918170324    0.83789405469259
O          -0.21100390539143    1.85878428018979    0.65820047440283
O          -2.42099014209627    0.87889251452106    0.96341665136457
O           4.22713857780827    0.14957903107235    1.82326439083982
H           4.28650987738199    0.72233651896896    2.59119731543113
H           4.54015334421553   -0.71910673601396    2.08482643983420
O          -2.93345221251424   -1.32335009940085   -1.72907309855731
H          -3.67987262858066   -0.87576460868248   -2.13117462416599
H          -2.24668756933016   -0.63262567578879   -1.59577441116746
O           1.16839173604344    0.47439004341052   -2.27473457999289
H           1.20981689269836    1.23063318171998   -2.86257438775233
H           0.24214546938595    0.45927125118249   -1.93101372232049
O          -2.89524399634084   -1.65016780378065    0.94126587242740
H          -3.04871354335262   -1.75317279197342   -0.02159720957414
H          -1.93111551345416   -1.68210897614814    1.04531821876917
H          -2.78752282445268   -0.05244626337498    1.04625485961925
N           1.89078293252918    0.42411039918222    0.28180085559281
H           2.79888478391536    0.33731913321768    0.75525092622612
H           1.17776098802918   -0.29256665822523    0.57814793992582
H           1.34528562779112    1.29029378371373    0.52568008894213
H           1.93411135146559    0.39100986139563   -0.76212680801578
