    23
        -45.36701638  Gyration_radius:  2.40836060124 Dipole_moment: 7.740
 S          -0.73677567448360    0.14021012987756   -0.38735425933244
O          -0.96410856593732    1.15860928456109   -1.41847120861896
O           0.61335407257193    0.60443793702687    0.28496604802544
O          -1.76880938114804    0.10970240903790    0.61833440451558
O          -0.46063307091837   -1.17039238806817   -0.96409458048273
O          -1.33365381672903    1.48156229019515    2.92176957499910
H          -1.45884220287624    1.11451317144904    2.02803371574614
H          -2.11549256026938    2.00577061282636    3.10230830214848
O          -1.26019960981844   -1.36101633533037    2.87210954495242
H          -1.70657407408199   -1.05955991376710    2.06355068590953
H          -1.13327118425783   -0.54891470627787    3.38179020130358
O           1.35800565415628   -1.12731517767503   -2.80269103999692
H           0.95610954167323   -1.49376089844967   -3.59246796397404
H           0.68174176134133   -1.24598066104472   -2.08035159281854
O           0.90938820128738   -1.66981533893025    1.37696941945521
H           0.87209967304197   -0.19859928028134    0.83860155171407
H           0.20852111158843   -1.68451727905989    2.07467854949082
H           0.49105408374716   -2.03021178887175    0.58341732097760
N           1.40680414286941    1.42567273685337   -2.20465261532207
H           0.32350770316064    1.42308724372722   -1.92463640675933
H           1.90568945352294    1.52221190296024   -1.32134881428496
H           1.55823505368272    0.44772103939034   -2.58699779222693
H           1.65384969790654    2.15658498984858   -2.86346305543668
