    23
        -45.35817153  Gyration_radius:  2.47709537088 Dipole_moment: 10.155
 S          -0.51743634840026    0.45789526297520   -1.11924561814304
O           0.91115244678912    0.99537040469270   -0.81345279158041
O          -1.32329118199766    0.54598373495861    0.07839058897347
O          -0.98115407218650    1.27958133062340   -2.23177703772971
O          -0.32450096666672   -0.94084667820794   -1.55796926177309
O          -0.32902478698813    1.57167177058635    2.35570621986265
H          -0.76632436104571    1.27024381279433    1.53531459361011
H          -0.80311320825575    2.35083124676024    2.64845018944291
O          -0.49228338547404   -0.85654015133881    3.87073254175729
H          -0.59051364969763   -1.45472792075941    3.12372297239392
H          -0.47476831342590    0.03332253625324    3.49418442820325
O          -0.47583673536313   -1.79444618174730    1.10021762177451
H          -0.98522861595453   -1.00716821412581    0.83361766338085
H          -0.35031385107637   -2.28262161313108    0.28168174861267
O           1.63992398230260   -0.11848293484027    1.35561996569905
H           1.01982073724585   -0.87737926755853    1.40416090594161
H           1.27750669569707    0.56646195446502    0.03997593990771
H           1.31043170477345    0.51590393234411    2.00861217964514
N           0.48832433230359   -0.06111381153145   -3.74759474667603
H           0.27169204742093   -0.71551212697000   -2.89119245999113
H          -0.13701478835248    0.73991385209603   -3.34954742675004
H           1.46641637490551    0.20806957419842   -3.78208917678542
H           0.16553597344514   -0.42641051253637   -4.63751900977671
