    23
        -45.36701639  Gyration_radius:  2.40805401191 Dipole_moment: 7.742
 S           0.38538665272413   -0.49748311695687   -0.56334238996748
O           1.10901154073797   -1.73152992469091   -0.23842670737871
O          -0.98718860189517   -0.76100638477739   -0.97928641575787
O           0.27670270467322    0.23333908312541    0.83098469736209
O           1.10023293275547    0.35548042460332   -1.47933236329799
O           2.58500290111014    2.37501822437272   -0.43289742962790
H           2.12645071108838    1.56432692300277   -0.71848960598512
H           3.45010027389258    2.34613103790878   -0.84461213340060
O           0.14587934627738    2.90208873843635   -1.79966467270698
H           0.88687292853096    3.25318736225119   -1.28686207092481
H           0.42696795152958    1.99975136486228   -2.02513702045884
O          -2.27037589575714   -2.32561615168141    0.63192300418282
H          -2.56945576601583   -3.07094251515291    0.10788189645037
H          -1.87047798090054   -1.68590951857153   -0.01921926251514
O          -1.52280935295057    1.78533319928514   -0.06574811891414
H          -1.80963552827546    1.03347145388592   -0.60158278869887
H          -0.39434482195511    0.96416825470364    0.64589091460816
H          -1.02950681706831    2.37771895605727   -0.68533816023679
N          -0.00588240021155   -2.24870090969317    1.95243252057852
H           0.58559002103027   -2.11360694055332    1.01232720263658
H          -0.99242503485942   -2.40545707609277    1.59497809018412
H           0.33249343161193   -3.00340901780390    2.53996939332824
H           0.04141081392386   -1.34635345652845    2.42355141054021
