    23
        -45.36001858  Gyration_radius:  2.56391975037 Dipole_moment: 4.113
 S          -0.60895521686511    1.11298951256384    0.07544215025352
O          -1.86459470929541    0.41877619678805    0.15189663147839
O          -0.86347251327300    2.57766949362303   -0.33777960927568
O           0.20558461262418    1.10498940252816    1.25734497409374
O           0.18923675716611    0.51853148854421   -1.10017038698389
O           3.00049796559588   -1.81571668579304    0.19664292242038
H           2.17206406981315   -2.22903421108383    0.53378877264825
H           3.19103163758029   -2.25296146680204   -0.63486837504799
O           0.76538674410933   -3.00169057762670    1.05860817918003
H           0.91440343646518   -3.64384864061777    1.75501772282613
H           0.10622975467909   -2.36535632865075    1.42115960726493
O          -0.91914530448270   -1.22228571677364    2.12912722021431
H          -1.57417029109085   -0.93925711724876    1.47593300387613
H          -0.36509320863220   -0.43729506531149    2.24118863225789
O           2.50831907822474    0.75232498758698   -0.19084169607858
H           2.13931303482321    1.06441257188158    0.64642930896853
H           2.79214222456930   -0.18503547867803   -0.02840831104239
H           1.19737096131118    0.61282478756835   -0.86633071977615
N          -2.68045480848158    2.00204218017321   -2.06168138245566
H          -2.83251382244349    1.16453843019920   -1.50592655452798
H          -3.55693988666192    2.49456154344756   -2.17194249593576
H          -1.57755158530543    2.53846401934750   -1.07080146853109
H          -2.33868895043176    1.73035666433010   -2.97382811583724
