    23
        -45.36001857  Gyration_radius:  2.56399258985 Dipole_moment: 4.112
 S          -0.33106927027378    0.95599616708701    0.76897509656055
O           0.90138759374450    0.48965018767204    1.33819257060661
O          -0.22482533753396    0.93658334231749   -0.76752216928180
O          -1.52305160090994    0.24355693108746    1.13764666135962
O          -0.50281904485131    2.44844448827639    1.12094163984858
O          -0.09031621594137   -2.03175661871054    1.65412928041467
H          -0.90903485387096   -1.52911321380499    1.54070695913697
H           0.57468257417129   -1.34300713102295    1.79254252636643
O           0.66005358139025   -3.13748371904906   -0.66197474134127
H           0.99133635197843   -4.00440242358627   -0.42058988643401
H           0.33259279149736   -2.73587903993174    0.17608344549198
O           2.45976776883047   -1.61318453827084   -1.92015143993740
H           2.19981074360136   -1.65768258120359   -2.84174887511601
H           1.80455853710754   -2.16167908476869   -1.42958252427602
O           2.26389732639176    0.86196957851500   -1.01313192897683
H           0.78621378818900    0.96459035731715   -1.00625530179486
H           2.34770605648244    0.78284818749970   -0.05327927315874
H           2.43684970992433   -0.04607623771175   -1.37523981348775
N          -2.95215145026057    2.57019285230685    0.35253163567874
H          -3.69960372125082    3.02829926309662    0.85695147382705
H          -3.08629757804681    2.71685775712446   -0.63900042671995
H          -1.45973977426716    2.68926094416644    0.84682687901997
H          -2.97994799612839    1.57201453159728    0.54294822220701
