    23
        -45.36753032  Gyration_radius:  2.36458117443 Dipole_moment: 6.784
 S          -0.67672324341149   -0.54681977071195   -0.78597127197123
O           0.71691956315850   -1.00423050853067   -0.71627623271832
O          -0.89610677880012    0.15219562509209   -2.13800857521076
O          -1.57836142485415   -1.69624441854605   -0.70492459071481
O          -0.93973551848070    0.41849058173549    0.28601906708104
O           1.60793667346342    2.90918630344010   -1.30613486010706
H           2.05706211166736    2.58031946537167   -2.08624942470822
H           1.82114700510006    2.27746777999243   -0.58096158031933
O          -0.75405821753497   -0.93523546195846    2.51801910772563
H          -1.60774682507869   -0.88061856335476    2.95136925571605
H          -0.82398566126506   -0.35380769337642    1.71844638544855
O           1.88529726107225    1.00594387539816    0.55694633912578
H           1.19148246875194    1.18173398057790    1.19768488645334
H           1.56247888815232    0.23754897522591    0.04156284011491
O          -1.03573561166231    2.56210635103712   -1.36929541071559
H          -0.99836562765077    1.15328685632533   -1.97019493206118
H          -1.17226421345130    2.19212024831368   -0.48507990549603
H          -0.09324799744145    2.85427735195390   -1.39414295151198
N          -0.03489267143392   -2.88411417752260    0.88626029866554
H          -0.23437612782484   -2.32632558859851    1.75432407979002
H          -0.85803729290074   -2.64375301241996    0.21589774908404
H           0.71728614173951   -2.38423896931812    0.36482208036161
H           0.14402710869153   -3.86928923012565    1.04588763598444
