    23
        -45.36498109  Gyration_radius:  2.32039007879 Dipole_moment: 6.808
 S          -1.08668907560439   -0.37571539740837    0.21404647681302
O          -2.03856374684403   -1.20477575633683    1.08021296588615
O          -0.50592507397167    0.66632663444045    1.17866948342814
O          -0.00358889756269   -1.22536775956919   -0.23129136434317
O          -1.81525617755639    0.28705803425987   -0.82618744316031
O           2.19380043152602    0.29948630397638    0.24629549161533
H           1.90543146871955    0.72470545772777    1.05777560467525
H           1.49727017170898   -0.34281955278604    0.02501524890799
O           0.03549854548948    0.06520505657079   -2.80881260595088
H          -0.78823503698886    0.16549519582857   -2.30634930877352
H           0.45059599723344   -0.72225762184614   -2.44564007657508
O           1.36000767471575    2.11267102302134   -1.62393459365978
H           0.95769301704434    1.48265349976729   -2.25601305626413
H           1.89862343247239    1.56063773465912   -1.02601679221241
O          -0.65039328460330    2.74469495859906   -0.14700863088515
H          -0.56588179222371    1.62836667478502    0.69925465823790
H           0.16783686776118    2.63787342366541   -0.73954648828889
H          -1.40428853412320    2.50002299115875   -0.69585416875651
N          -0.26520991910320   -2.67213560676589    2.20329772041950
H          -1.43852432890425   -1.83738974007296    1.63342855430215
H           0.33559460680816   -2.55480457412876    1.39324945457132
H           0.19172444284371   -2.28242353382274    3.01686510889805
H          -0.43152078885051   -3.65750743571642    2.35854374111655
