    23
        -45.37702313  Gyration_radius:  2.38047139069 Dipole_moment: 5.243
 S          -0.83647757511102    0.23324550408173   -0.33940234306461
O           0.56797325993105    0.07783630329912   -0.78546602693084
O          -1.66871620994047    0.78886750517662   -1.36658522983648
O          -1.30262333359256   -1.02297355747855    0.23451910789925
O          -0.77211427143258    1.23484039092874    0.87052728920457
O          -0.04883456777393   -3.32885249332972   -0.19851904159721
H          -0.12552362788760   -3.54897549376331   -1.12809614477097
H          -0.66784890296231   -2.58113718228901   -0.04525764609554
O           0.94339867081204    2.38686398100189   -2.06496757381903
H           0.58964263075796    2.23873821135574   -2.94447678751854
H           0.89314983340424    1.52015190008148   -1.61393650469424
O          -0.23265730004701   -0.81969688949176    2.64637393984928
H          -0.28604683739454    0.12900871614558    2.79434872183192
H          -0.83033874794165   -0.97617291207039    1.88298485570317
O          -1.12843085651371    3.29509632246683   -0.60864087819477
H          -0.28215996816368    3.26558861046549   -1.10260913794183
H          -1.71189309598043    2.69935541141991   -1.10459984634603
H          -0.89201031142691    2.13614584287868    0.44801130203055
N           1.60471282824097   -1.55553028661102    0.90042121390635
H           1.30677860485620   -0.82077492454588    0.16989911903514
H           1.06268115208613   -1.30707715859774    1.77319605233232
H           1.21000280458597   -2.45270260152509    0.53709215936171
H           2.60733582149218   -1.59184518959687    1.04518338965413
