    23
        -45.37371322  Gyration_radius:  2.4306766616 Dipole_moment: 4.639
 S           0.70340583752230   -0.67141144821444    0.43104782674022
O           1.24570610034678   -1.73923304484730    1.41318276900419
O          -0.42259266111607   -1.24663915290118   -0.29732241836831
O           0.26713110481946    0.48455639099656    1.23308759111935
O           1.78976769540403   -0.30581346791225   -0.46776541197992
O           0.04207784684541   -0.26657585596769   -2.71195198358686
H           0.99054401841246   -0.42256335362135   -2.71559847732119
H          -0.26136071780790   -0.69340195709541   -1.88223108691031
O          -2.36497538434875   -2.08866308740635    1.29811543367605
H          -2.49064579252789   -3.01635551003297    1.09120791218496
H          -1.72835515283386   -1.74795905147338    0.63270837672936
O          -0.46917459396767    2.28521985014088   -2.33864345692211
H          -1.40003617026104    2.32663853940493   -2.11223490877435
H          -0.30163727849827    1.34257389716354   -2.61006748837991
O          -0.59555254553352   -1.25936568263567    3.13827237060018
H          -0.50584699850134   -0.35315342849462    2.80949708360897
H          -1.37753839301243   -1.62160802790212    2.66908435153688
H           0.61505303952138   -1.70919876641036    2.19369235909713
N           1.27049615564523    2.19893638298597   -0.35890227914477
H           1.86448539866069    2.98554053469045   -0.12219175099715
H           0.74034724677596    1.78843396497464    0.46637598834124
H           0.58771336447313    2.40657511132130   -1.14374797182594
H           1.80098788003839    1.32346714320896   -0.61561483837918
