    23
        -45.37949586  Gyration_radius:  2.38772360172 Dipole_moment: 4.345
 S           0.77849865205567    0.37713593464659    0.37384423623750
O           1.18629287614239   -0.99221947242287    0.05873521378624
O           1.63190155501856    0.88269048396974    1.56062403524735
O           0.99285874036882    1.26377785744131   -0.75010339096790
O          -0.63172911540077    0.39654900981047    0.80858018521051
O           0.90792847423914   -2.63984589333236    2.10750907740629
H           1.76446915872792   -3.04668769036923    2.24861846913797
H           0.99199517503665   -2.11249294578842    1.28251307118599
O          -0.85002094187731    2.66539127893083   -1.99273951523591
H          -0.05586424454307    2.24474133207097   -1.58472351441352
H          -1.01086985725842    3.46254370763574   -1.48539443988451
O           0.30718722148957   -1.01894883200995   -2.41203671819398
H           0.69638709156485   -1.16694756169725   -1.51828162732935
H           0.85084369812844   -0.32443444857598   -2.79480859937164
O           0.18593081665509   -0.34507706588717    3.28768946890216
H           1.20414356477038    0.46602754817049    2.36796781821253
H          -0.52974681421460   -0.12008958431391    2.67569036552382
H           0.41005243756789   -1.27846921932574    3.08239737470710
N          -1.81099980443941    0.24690025300561   -1.47782380759191
H          -1.09105733101363   -0.34721419951901   -1.98530790563568
H          -1.70409134404688    1.23123447087154   -1.81968245883593
H          -2.75496812650619   -0.11074046135620   -1.57204181888861
H          -1.46914188246677    0.26617549804789   -0.46122552922957
