    23
        -45.37371322  Gyration_radius:  2.43072052584 Dipole_moment: 4.640
 S          -0.91353250464841   -0.23655651646192    0.49066793457005
O          -0.41102359607450   -1.45796888203151    1.10494135815144
O          -0.18029351502136    0.93645033911076    0.95512394211271
O          -0.87231713077924   -0.32653377885001   -0.97903816272921
O          -2.39779403848491   -0.07913186955677    0.90433814611949
O          -1.15673955339755    3.20982480546664    0.00363518111948
H          -1.37130907452195    3.74419027316429    0.77019672917905
H          -0.69145578693088    2.41726534620704    0.34930664724156
O           2.05878135989859   -0.21451668840793    1.77253246691126
H           1.30007795490938    0.34941471713935    1.50973251817145
H           1.64573847349979   -0.96248415134963    2.21288142880543
O           3.11788820437458   -0.96370726229591   -0.51425129786920
H           2.84253626255044   -0.68344643001173    0.40006145633020
H           3.29164898377607   -0.15050268462424   -0.99172817086925
O          -2.90670468094440    1.48137780244599   -1.07104083809329
H          -2.25536492624081    0.92790137836299   -1.52572985206154
H          -2.78770874883687    0.54175795416507    0.21855216888743
H          -2.40995873189247    2.28209327214733   -0.79724396650034
N           0.84328509293558   -2.20712582920705   -0.99762161156226
H           1.82236198538915   -1.80405586443930   -0.93269985147142
H           0.45549229356801   -2.27285745020298   -0.01830528324314
H           0.17789134355014   -1.45496360971869   -1.34714413718239
H           0.79850032329768   -3.07642488104260   -1.51716679604614
