    23
        -45.37371326  Gyration_radius:  2.43085775198 Dipole_moment: 4.641
 S          -0.65557906682789    0.16068067293378   -0.82211382916487
O           0.50685068595855   -0.72113612135134   -1.02425527986240
O          -1.70072500381868   -0.19284674854930   -1.90918858882003
O          -1.25707797379121   -0.07266852240403    0.48672086059428
O          -0.28978186821108    1.55938932745654   -0.99970923159194
O           2.24482430936419    1.40113664942543    1.97874984752357
H           1.30010962388797    1.71082599278769    2.02235826126207
H           2.27896256388446    0.60232797840303    2.50814070356795
O          -0.30629972560770    2.01435182857948    1.80849375526325
H          -0.45074141856651    2.66236684019151    1.11341220057356
H          -0.72457797403813    1.19899898865619    1.45779889167349
O          -2.10133509277594   -2.56465352676494    0.80979341686708
H          -1.76202973787685   -1.64326083144998    0.80248069984810
H          -3.03408497324588   -2.49984718491486    1.02189788075283
O          -1.21946060322546   -2.70870389211333   -1.72103824400322
H          -1.66752801151794   -1.19390286293758   -1.97653037682510
H          -0.31738960156515   -2.40437538455162   -1.54486874302811
H          -1.59943465494673   -2.89695878070263   -0.83603113500834
N           2.20953996211519    1.13284529124907   -0.64428764892728
H           1.33672640791702    1.67934469832389   -0.87540793943751
H           1.80521048169946    0.16614549221098   -0.82469861194062
H           3.00679937097658    1.36549772165491   -1.22554587267724
H           2.39702233009152    1.24444235386577    0.39382900342686
