    23
        -45.37611831  Gyration_radius:  2.46368418485 Dipole_moment: 3.233
 S          -0.41090945279857    0.31302784783983    1.23393100638302
O           0.99043372049128   -0.06311120854826    1.05120907893135
O          -1.28700470698209   -0.57781094499308    0.48384122167566
O          -0.76328011428854    0.09942159084422    2.74307807711784
O          -0.62689493414136    1.71909955732607    0.91946561395333
O           0.96468662127596    0.31060274516616   -2.87535158243803
H           1.51379602854168    1.09580914147359   -2.90324078999756
H           0.09090784112384    0.60700016036853   -2.50603467636325
O          -1.21736557384619    1.07263394913764   -1.61128737164476
H          -1.50846935577960    0.30905269976622   -1.08608987141913
H          -0.98892511760449    1.70570424066525   -0.91155825460363
O          -0.79167030473892   -2.89813431884539   -0.63344087533266
H          -1.49281593305145   -3.00873509797977   -1.27837557162747
H          -1.05278767317572   -2.12194459511478   -0.08373874031332
O           0.18437574151807    2.51704809924880    3.27501757948838
H          -0.45390597704761    3.13552825891300    3.63781093407213
H          -0.34689932301899    0.86153582912647    3.19335877977752
H          -0.00402387361843    2.45944221150278    2.31441063786207
N           1.46514777502036   -1.52630047815395   -1.00989905355686
H           1.36232047164052   -0.87112913431250   -1.82753475221612
H           0.67304766064286   -2.21303114225652   -1.00082536311995
H           2.36466856911917   -1.99352577739754   -1.00674714596616
H           1.33556793071932   -0.93218363378079   -0.11799888066175
