    23
        -45.37350743  Gyration_radius:  2.31058463493 Dipole_moment: 7.165
 S           0.50123787837379   -0.95669324352808   -0.27780937161530
O           1.90875055908138   -0.67222975047569   -0.17023288264954
O          -0.07392300122479   -0.51293063256611   -1.54798947300941
O           0.14244319275099   -2.34711078083291    0.01330417106446
O          -0.26603084425529   -0.16355341211117    0.84271714885218
O          -2.52505137997337    0.07534656933633   -0.99487287817517
H          -1.62555370486314   -0.11477809696581   -1.37253925773621
H          -2.43939802175831    0.92691522918697   -0.55869446092542
O           2.84332465305240    1.20675540638191    1.46749362187941
H           3.14592560296156    0.78079461675735    2.27015747388370
H           2.60268570159652    0.48306546614947    0.85117682228467
O           1.38384504752266    1.68989897350374   -1.81928448245617
H           2.27305397552512    1.37425629003781   -1.63701138072687
H           0.84138079128030    0.88123547352848   -1.90432133356564
O           0.50022120666110    2.23907304798558    0.62598086158907
H           1.34804184570483    2.15368295688702    1.10236642653108
H           0.76282689105889    2.25428114951410   -0.32551452705904
H           0.00657670285200    0.82465502284803    0.79362220293123
N          -2.30261535034818   -2.04174389656559    0.54315032892499
H          -2.37613790112320   -1.82242719203704    1.53192085724429
H          -1.22741592029873   -2.26078791934259    0.31484236977157
H          -2.89935888851835   -2.82411713455736    0.29357326496914
H          -2.52482901606134   -1.17358812313213   -0.04203550200605
