    23
        -45.36457395  Gyration_radius:  2.45196615506 Dipole_moment: 3.531
 S           0.30780546048499   -1.09738191015357    0.07912098199735
O          -0.62118358041204   -0.86580243338808    1.15345316340171
O           1.69512422915767   -1.09819892734199    0.47708066918022
O          -0.03646423775136   -2.42784697692917   -0.60524143701918
O           0.09588789351928   -0.07561819484773   -1.03282846352048
O           1.26605700120192    1.01037378239821    2.11451227924108
H           1.70628735390496    0.27568694224181    1.65483928719628
H           0.45398003260453    0.62568958697368    2.45928123782654
O          -2.99707425673555    0.24296158294656    0.70962895422889
H          -2.14464608310502   -0.22772056084559    0.81338827850848
H          -3.50290354591449    0.04690935835301    1.50062364818241
O          -2.13793803261133    2.74567361989349    0.30883780135173
H          -2.50033079374798    1.84605153583378    0.47746506188894
H          -2.56242153190022    3.05579576861993   -0.49278650107209
O           0.41048245784856    2.19076103348409   -0.11010168460106
H          -0.51471967807074    2.50242539785311    0.07244670669170
H           0.80328472302658    1.96311852212195    0.76649729324541
H           0.24652973781776    0.95007656242660   -0.68638356207325
N           2.09315818439324   -2.36427134385676   -2.03045529335679
H           2.00965843777635   -1.72915648396547   -2.81305334419828
H           2.68893240961967   -3.13788425675132   -2.29429348916421
H           2.51113886258131   -1.86489066759159   -1.24994133017029
H           0.72935495630923   -2.56675193751284   -1.27209022773297
