    23
        -45.37611817  Gyration_radius:  2.46344420851 Dipole_moment: 3.221
 S          -0.67741153561402    1.14366635401209    0.14771598247011
O          -0.01261604350581    0.96663460734435   -1.13698344753106
O          -1.32532911352346   -0.09694843446559    0.57149389884869
O           0.21223411292397    1.65600361484947    1.18156016119689
O          -1.80125997776257    2.20601457838134   -0.08772351742534
O           1.96688828395007   -2.26469998238284    0.53509029074338
H           2.19172295044365   -1.31632092150978    0.34035667929393
H           2.02744236079176   -2.35480912723572    1.48754909435376
O           2.26127250880279    0.31601427737866    0.09727031995510
H           1.68344681356829    0.53420483442267   -0.65253296243235
H           1.83884110075827    0.81898694228374    0.81221410809904
O          -0.23074177892986   -0.95349193547176   -2.91014791022525
H           0.56777470785825   -0.88609514691501   -3.43706446232060
H          -0.25445045482693   -0.13977335165253   -2.35340673801727
O          -1.73830635001092    2.80244379847445    2.49398499756125
H          -1.49431248326572    3.70768712562750    2.70027999698114
H          -2.06066434305669    2.48048152020822    0.81468223022048
H          -0.90607129145878    2.33967393796441    2.25969995037321
N          -0.45470834059087   -2.22723193116019   -0.57685697949729
H          -1.05268542987690   -3.04037549492626   -0.48375075596678
H           0.49624365425407   -2.38444459890081   -0.15299003885416
H          -0.35540524890894   -1.93352849319883   -1.57834211625505
H          -0.88190411231542   -1.37409217246902   -0.07209879122907
