    23
        -45.37611809  Gyration_radius:  2.46296005159 Dipole_moment: 3.235
 S           1.21263106674230    0.23276134471097    0.51398451256501
O           1.13701181281463    0.21999243701365   -0.94113451771571
O           0.83229997139846    1.51549417466472    1.09108714790307
O           0.42588454548475   -0.86012446612913    1.08409801290382
O           2.71253845875036   -0.02882546805937    0.87329134250047
O          -2.98289524476588    0.26044895019959   -0.55599697239923
H          -2.28106737951554    0.93574704383390   -0.75452019292725
H          -3.39485167364962    0.54769126016171    0.26047047412469
O          -0.94130955403898    1.89335037338416   -0.87715260783823
H          -0.23418578480896    1.36795336128992   -1.28604804426967
H          -0.54763289787377    2.09778180975484   -0.01331392169869
O           0.28715459272959   -1.64571813280575   -2.57655245167835
H           0.76868793691052   -1.00083784602244   -2.00641145073970
H           0.09953557992963   -1.18186597650643   -3.39470830913562
O           2.32726792880118    1.16387543016345    3.20896182692559
H           1.60615367476373    1.42900415950730    2.59965990053201
H           2.77567293890334    0.21864729620665    1.81757271997573
H           2.85576743000149    1.95104190257201    3.35925758952694
N          -1.35598457176170   -1.84930412065740   -0.48454515629360
H          -2.10379985450917   -1.10976923262636   -0.53391005761006
H          -0.85468522369914   -1.91211256598737   -1.40297227074079
H          -0.61672271568127   -1.49682330098349    0.21860625303187
H          -1.72747104692939   -2.74840841368460   -0.19972383694205
