    23
        -45.37611822  Gyration_radius:  2.46324856703 Dipole_moment: 3.220
 S           1.25744025155210   -0.27222863017770    0.36681526539696
O           1.84759068025638    0.55344988377886   -0.67853361214354
O           0.43645247198560    0.52758633052114    1.27506025628946
O           0.49747862836310   -1.39838862569263   -0.16044188188967
O           2.42380509134927   -0.89031110935994    1.20612285159586
O          -2.36597995384387    1.33430932745620   -1.37883680343898
H          -2.14137026633515    2.26177140485244   -1.47017453656747
H          -1.62734995048805    0.83481126349041   -1.81804841818226
O          -0.24515618702593    0.05277055703773   -2.27218102043514
H          -0.15491506804362   -0.74349959587958   -1.72308583968392
H           0.55763272576962    0.54101192238298   -2.02778781717097
O          -1.78904838404141   -2.41720677510765    0.62188229770808
H          -2.10488075965482   -2.90973658580541   -0.13801935626037
H          -0.85664714796398   -2.17196789110443    0.41385433885681
O           3.81652295717742    1.33742148527407    0.85465433964456
H           3.10972538666713    1.29986852010384    0.17593286789926
H           3.04091329648523   -0.14325475414702    1.34014541201328
H           4.64708016926677    1.23322760115577    0.38468302723465
N          -2.10198420506146    0.20218977728397    1.01933566840417
H          -2.33914849413024    0.68349018319528    0.11341297524079
H          -2.19817173265330   -0.83578982619174    0.90804664262190
H          -1.05065909043870    0.37239932878956    1.19505379819660
H          -2.65933041940927    0.54807619793434    1.79210953455223
