    23
        -45.36180103  Gyration_radius:  2.35800427308 Dipole_moment: 5.548
 S           0.74888283279436    0.22954188680185    0.26953555248608
O           1.84493036819815   -0.13441796339514   -0.77657139296547
O           1.30823770151110    0.15524443497583    1.59138335848509
O           0.18697373063951    1.48534169883716   -0.12319930687164
O          -0.27396017686966   -0.89573417459927    0.12896907181349
O          -0.06551886944661    1.15154979376418   -2.74828399322694
H           0.74438647495248    0.66312826807726   -2.91220730840348
H           0.04603318843355    1.54325766896645   -1.86094612999279
O          -2.97330953677139    1.44416704090459    0.23089701371818
H          -2.27880395644001    1.37311463516389    0.91212495426585
H          -3.80999332668773    1.33548526718391    0.68688040461850
O          -1.34369429986593    0.57946874915685    2.28405728126700
H          -0.38624589697735    0.70364167092280    2.26428348063711
H          -1.47930594094097   -0.35722202963226    2.11600429842452
O          -1.96699482573901   -0.25348551736097   -1.53688637424956
H          -1.04389322833493   -0.67100329313704   -0.63411091313522
H          -2.44988052902054    0.42122957490558   -0.99672706227542
H          -1.41126954991673    0.25930348792700   -2.17236808236661
N           3.00053183037829   -1.91734826378256    0.68414525250175
H           2.62078695698688   -2.85449535306211    0.66831994925602
H           2.39687553763324   -0.88106674526464   -0.35774130000916
H           2.58436980478182   -1.40688732800893    1.45945605876675
H           4.00086171071523   -1.97281349935597    0.82298518726951
