    23
        -45.36829371  Gyration_radius:  2.45809059359 Dipole_moment: 6.310
 S          -0.73743493764512    0.58052441992309    0.46833322199340
O          -1.03749673146242    1.96352234417514    0.75802950781877
O          -1.59528080219493   -0.38645531698734    1.11258810954921
O          -0.64944220364823    0.36424074417281   -0.99742185889491
O           0.74382134805992    0.33820121790672    0.96440455733785
O           0.38928934773607   -3.46993966037637    0.05280051859090
H          -0.38726507052497   -3.03611542617911   -0.37870856422262
H           0.13994451154658   -4.38568927045151    0.18654357247001
O           0.36819686653990    3.84574588444710   -0.31604096409641
H          -0.26352255606763    4.39851094679348   -0.77994482190378
H          -0.18124342925670    3.21105970931516    0.22026289730815
O          -1.72587424375137   -2.14864403966038   -0.87692816904299
H          -1.90721639640489   -1.63431585372641   -0.06735297394111
H          -1.40736769012274   -1.47068446171217   -1.48462520833309
O           0.38235893503787   -1.85803914705422    2.19822051766721
H          -0.55602945802381   -1.61724336874471    2.17090914180045
H           0.50797510842420   -2.51745683708273    1.47710408752496
H           0.73134611014034   -0.51085079118641    1.51370118007085
N           1.47789746930295    1.67624485299813   -1.27749208004940
H           1.16552443606053    2.65976374248366   -1.02496532698005
H           2.01718007145878    1.63151302189564   -2.13568910961294
H           1.98667551999964    1.28735866979060   -0.48211769406424
H           0.53796378479682    1.07874860924778   -1.30161055098784
