    23
        -45.36777276  Gyration_radius:  2.3269404736 Dipole_moment: 7.960
 S          -0.09049269173506   -0.53938860966796   -0.58916468910620
O          -0.06880658942670    0.89013180669076   -0.24595296566234
O           1.24118040441185   -0.86985594382956   -1.30204461251990
O          -0.13283538450475   -1.34213807776902    0.65610579184263
O          -1.19916374293915   -0.86261899300587   -1.44578624042434
O           2.10925030354246    1.93583967277809   -1.60714817942556
H           1.23618846199370    1.69476981094814   -1.26059622130259
H           2.39876920122958    1.17594095429332   -2.11686875928250
O          -2.66456798538474    1.12863920564830    0.02798607605468
H          -1.67962384941714    1.19380014490343   -0.00595393508358
H          -2.93516358452875    1.16373460397354   -0.89380126036306
O           2.16035505988320    1.51905808149224    1.19885663243923
H           1.24269470037729    1.39880556570324    0.89786492192155
H           2.58815512073964    1.97211990004975    0.45910538850307
O           2.59026915676988   -1.06401394804082    0.83718431968846
H           1.79624660560196   -1.42117425082670    1.25643613915632
H           1.91643033395094   -0.98751544047585   -0.54789203596400
H           2.61579048826152   -0.10762683736812    1.09603090789182
N          -2.66529151530529   -1.39910632957789    0.74413152049439
H          -1.57043683915324   -1.47632613456660    0.83286430085832
H          -3.16446080249269   -1.71505033261172    1.56992844937331
H          -2.81098493244635   -0.35860386220804    0.52744901841443
H          -2.91350191943047   -1.92942100653022   -0.08873457751145
