    23
        -45.36842742  Gyration_radius:  2.29898463058 Dipole_moment: 5.033
 S          -0.37932895914004   -0.53738253165890    0.42571920374753
O          -1.28824582889416   -1.47046543804827   -0.19556653731814
O           0.26762290810101   -1.19126245410024    1.68792946897497
O           0.74817462966097   -0.22200252627940   -0.47996801137216
O          -1.00553151403715    0.68590674656895    0.90283685377921
O           0.94002161613774    2.01854046030085    2.02927850238048
H           1.48720796461838    1.38444303347761    2.49678782195035
H           0.10722056357328    1.54095010135134    1.80642212192691
O          -1.22668128418051    2.52012689475104   -1.03305595941506
H          -1.39480719603613    1.82791753822783   -1.71148545372648
H          -1.47984414631209    2.07978406848620   -0.20098915782828
O          -1.36109671981598    0.18545145259988   -2.33449860221854
H          -0.47293004775706   -0.01819653830501   -2.63894674067709
H          -1.53457774956840   -0.45371885689110   -1.61987798726084
O           1.20114580934156    2.19801786735994   -0.51991978537324
H           1.24324022865217    2.34127109774486    0.48183859707575
H           1.10630192387396    1.13068211516559   -0.57323734610064
H           0.22014019611619    2.49432028873223   -0.80811954637323
N           0.62649304159856   -3.44114688502544    0.42933006227653
H           1.41124539871718   -3.46433777605442   -0.20844365942507
H          -0.19196608272357   -3.11625900755758   -0.08091978372391
H           0.45362100282239   -4.38078272132464    0.76219048435866
H           0.52257425524944   -2.11185693952042    1.38269545434112
