    23
        -45.37761803  Gyration_radius:  2.3298853697 Dipole_moment: 6.022
 S          -0.92976786313680   -0.77238428086567    0.34312182001954
O           0.37086451294501   -0.63485451350999   -0.33507021620229
O          -1.00978878692787    0.16556422786925    1.45705852712725
O          -2.01019082607485   -0.60185376537632   -0.61443465621873
O          -1.01164574880995   -2.21037040880783    0.90970545116194
O           0.81181777716028    0.09845704970552   -2.82511233390812
H           1.74847894960618    0.29164305624592   -2.88910167411264
H           0.67749292972170   -0.32353584356319   -1.94423509292554
O          -0.11174550747321    2.32948723427790    0.32689466651572
H          -0.50641798112982    1.59654361860603    0.86332416475174
H           0.83546665476092    2.17850240300055    0.36679994532997
O           2.31186987164969   -0.98638268381860    1.40541338583232
H           1.62338819709825   -0.81405892476652    0.72314861188473
H           2.79714640357814   -1.75658872557696    1.10434855998528
O           0.25660779211051   -1.57877002390331    3.05918405148849
H          -0.54615798381824   -2.15837537170501    1.79620078374488
H           1.14159438431822   -1.39486997774960    2.68147900116003
H          -0.23082478864340   -0.74657644869060    2.96263506787818
N          -1.25929855242558    1.49539647519641   -1.90788636905508
H          -0.81946239215782    2.01315715120983   -1.09671137506059
H          -0.49627566021855    1.12385181177809   -2.51602811061379
H          -1.70940941793668    0.62987557998550   -1.45424724311580
H          -1.93374197423386    2.05614236044690   -2.41648694565861
