    23
        -45.36842734  Gyration_radius:  2.29920626554 Dipole_moment: 5.034
 S           0.62768788853091   -0.12156110179987    0.45159333442811
O           1.21102024849723   -0.25058215743262   -0.87478643302786
O           1.39425466148029    1.05879474568918    1.12855437204327
O          -0.78097866422299    0.32281216862264    0.35581457204256
O           0.73561943950282   -1.30598656179244    1.26910364810306
O          -0.49501492063536   -1.35053358570088   -2.61807066743755
H          -0.87362948604766   -1.93641107897227   -1.92441705691699
H           0.38629343065958   -1.13047282919066   -2.26418045547492
O          -1.19737970291732   -2.41517873410826   -0.26544345430548
H          -1.91256193334422   -1.87732204042080    0.08419352898980
H          -0.43144913597247   -2.21494789073582    0.30255607629853
O           0.89677818850493    2.10664698561885   -1.95881760706396
H           1.23317161997130    1.25265587743012   -1.59993397132504
H           1.06083803367304    2.75946578631227   -1.27549895902982
O          -1.37128392949962    0.90006081671106   -1.96397012173626
H          -1.22714519572220    0.69148555689652   -0.92144924892732
H          -0.58725612608861    1.51311312319876   -2.15160278548640
H          -1.10478151450053   -0.03948298675188   -2.38810690516602
N           0.44786271504276    0.42969454751022    3.47010558467482
H          -0.50729440149475    0.71219203917709    3.64624870764054
H           0.43615781941572   -0.49846898935024    3.05278790409524
H           1.11989221008009    1.00813819603190    2.09188169728050
H           0.93919874509479    0.38588811305324    4.35343824029924
