    23
        -45.37716568  Gyration_radius:  2.39533535044 Dipole_moment: 5.426
 S           0.70375062404440   -0.59592660054566   -0.12907426502274
O           2.04398620234846   -1.10526080058710   -0.03427431809131
O          -0.34754097244206   -1.58688200673277    0.07508731701811
O           0.47638611128547    0.57637489959826    0.73702294418807
O           0.46160106521566   -0.08199728823178   -1.59717460183055
O          -2.28371550841189   -0.50600241212545   -1.35635841271038
H          -1.61249909712444   -1.08908616710009   -0.93485492419531
H          -1.81620139645447   -0.11353578472565   -2.09859563963928
O           3.14335221715967    1.20494037366121    0.58969652817378
H           2.99520738883517    0.24309435148451    0.48664857504768
H           2.32581113352145    1.50456921093389    1.00393246921119
O          -1.99861282285865   -1.69322549907038    2.14144543554283
H          -2.59326723827518   -2.42920868554566    1.98560022849729
H          -1.27788489286069   -1.78668860768511    1.47876160427799
O           2.57934705277064    1.35688285104146   -1.98047274063352
H           1.24389662289399    0.50081069734916   -1.80901770512259
H           2.87391672014805    1.46241343473364   -1.03784376858982
H           3.23463106156142    0.78965666335658   -2.39304610947948
N          -2.06339326930273    0.70537065994558    0.98714979591670
H          -2.25478658935777   -0.10474236147040    1.62091353817865
H          -2.36607680009688    0.41795219813465    0.02141875949065
H          -2.48845557792608    1.56776348988725    1.30757582862126
H          -0.97945203466618    0.76272738369614    0.93545946115195
