    23
        -45.36626750  Gyration_radius:  2.2676464619 Dipole_moment: 3.719
 S           0.30341712714393    0.15694002484274    1.16220806511979
O           1.74249600488882    0.03073490179287    1.04412167282657
O          -0.06256047928197    0.15915052629731    2.66933897388898
O          -0.20488892126940    1.38089436521623    0.55041184077718
O          -0.37100932225753   -1.00922986396263    0.55154910278875
O          -1.25639941037217   -0.56034240510437   -1.83228731691217
H          -1.03312006790330   -0.65956690361084   -0.86612574084608
H          -1.67820707768191   -1.38141675531026   -2.09489404399291
O           1.20465765458662   -0.35541733580890   -2.43812953413589
H           1.50945391860077   -1.12326589623582   -1.79311251042151
H           0.18079936070396   -0.37666657181811   -2.35768666860233
O           1.68972736515692   -2.06424986754343   -0.64638862224224
H           0.85035167821095   -1.87664449584908   -0.15575710317527
H           2.35668098561980   -1.67581443751788   -0.06537429927785
O           1.80591240684063    1.63601353757365   -1.05411111911182
H           1.50365571656148    0.54950209041851   -1.95093725833096
H           0.94363211734135    1.81411792070378   -0.60530147211506
H           2.29463923988637    1.20413165065716   -0.33040469768847
N          -2.51517457700814    0.84959897958243    2.06395039469938
H          -1.03731834435688    0.37198942928278    2.67126789631022
H          -2.01794399321210    1.29904576045615    1.29784834886447
H          -3.08063595304869    0.10358352202669    1.68126172003062
H          -3.12816544918832    1.52691179389250    2.49855239152515
