    23
        -45.36626738  Gyration_radius:  2.26771102559 Dipole_moment: 3.725
 S           0.90410343689048    0.46301393700800    0.66018978335309
O           2.26323310391207    1.20260505956545    0.76548493703408
O           0.22330761244779    0.57950508538848    1.93449503794777
O           0.12587350808632    1.13072935466249   -0.40584750861328
O           1.14902325474499   -0.92458958813194    0.27913433966839
O          -2.08144537659420    1.53484212525997    0.92041933826543
H          -1.28962394409005    1.58035579798557    0.32757722243911
H          -1.67866675737802    1.52342568092790    1.79837346742048
O          -2.58343392095521   -0.86390065424304    0.32017191087958
H          -2.15198406349020   -0.85262841942212   -0.61215801275508
H          -2.51988294356572    0.13732377099376    0.62317600509950
O          -1.28174395745135   -0.49707670677319   -1.83297806531619
H          -1.71300149601197    0.05978355038228   -2.48489992655735
H          -0.62391384749360    0.08510698503985   -1.36223520532103
O          -0.77637136583937   -1.85739179792413    1.73077905783417
H          -0.01507169932123   -1.82770637368560    1.10148273083202
H          -0.56264059471938   -1.09633217987894    2.30045940920927
H          -1.88676655774433   -1.38555159844279    0.94329020663717
N           2.98431166703249    0.18838390760928   -1.53875025033755
H           2.38327055992588   -0.56167558907093   -1.20354182902205
H           3.86966763468786   -0.20605828501118   -1.82858909642726
H           2.54314371551516    0.61324220359800   -2.34354440663964
H           2.71861201143480    0.97459373415587   -0.09248913562655
