    23
        -45.37432801  Gyration_radius:  2.32624176118 Dipole_moment: 1.836
 S          -1.01194824379643   -0.35034695238539   -0.49442937013655
O          -0.36126083359525   -1.57813915337387   -0.02557958393290
O          -2.49177263650382   -0.70425413932088   -0.84114531962039
O          -1.03060782649790    0.65252150524260    0.57282813133471
O          -0.39971493147024    0.16999234592474   -1.69649200776092
O           0.76253826325713   -0.29150202587556    2.44665724545738
H          -0.06270014845138   -0.03101725012628    2.01255485618135
H           0.92442121694001   -1.19334328854362    2.16294401470687
O           2.07692501596435   -0.75600734736022   -0.64034745731748
H           1.24579605464457   -1.20778852758767   -0.37830761757675
H           1.97453289446465   -0.59544993933652   -1.58284264366968
O           0.75731790844305    2.54037262261918   -2.00628045422745
H           0.08827088112859    3.17665988945316   -2.26283300138424
H           0.31380653198099    1.66253196816972   -2.02854089117791
O          -2.53828364030126   -2.43876694790745    1.15400995396702
H          -1.60426958824832   -2.29048645275734    0.90058044113032
H          -2.79680229032071   -1.25986941978897   -0.09412206754500
H          -2.74015621437879   -3.35160268097544    0.93696896590557
N           1.40536814883877    1.60012152722342    0.39107609620988
H           1.85919381982143    0.69214240971842    0.08755994620088
H           0.39660012032339    1.33434603385832    0.58769712390253
H           1.84728527407313    1.97535519732559    1.22428826870062
H           1.38546022400818    2.24453061574706   -0.42624464939220
