    23
        -45.37376524  Gyration_radius:  2.33136293503 Dipole_moment: 1.663
 S           0.91217995332942   -0.67743298813247    0.12656354709878
O           1.03354333899780   -0.18964964012173   -1.24214829631302
O           2.17415055732625   -1.55767254644476    0.39125985455700
O           0.89305888169985    0.41724856724204    1.07949187189095
O          -0.26523739112173   -1.53777011099185    0.28689732745994
O          -1.41878962348825   -0.79919305855323   -2.34758557752989
H          -0.47213133774580   -0.80810999440102   -2.14691342317102
H          -1.81416150462033   -1.38965320307431   -1.70289184737924
O           0.87061909386829    2.99476081651694    0.49788233163718
H           0.92630536353552    2.06818032008289    0.83019618965430
H           1.77677273187294    3.28796930958491    0.39257766418653
O          -1.91993937422134    0.47295147057818    0.74267715182950
H          -1.44026576998643   -0.37010757600875    0.59069244300375
H          -1.48337440866031    0.85981940964446    1.50772887218163
O           0.84406559041121   -2.96581060664399    2.19142603834696
H           0.18910870059400   -2.52509878726018    1.61281250159404
H           0.76719396311441   -3.90798885492205    2.02442384016732
H           1.94644999419068   -2.09561544319994    1.17804031268857
N          -0.72079685661434    1.77551509845549   -1.23075372333899
H           0.00567226717140    1.02984184232226   -1.41480473193009
H          -1.19540085428766    2.04002886209384   -2.08793589797424
H          -1.38677269404372    1.32679604235269   -0.53694638591297
H          -0.22225061132787    2.55099108087726   -0.74269004274361
