    23
        -45.37376554  Gyration_radius:  2.33179406327 Dipole_moment: 1.663
 S          -0.55328613412545   -0.10191865457165    0.99443861916802
O          -1.31188490196381   -0.95637395189898    0.08866442926164
O           0.83345045756868   -0.52191350209271    1.08181513069036
O          -0.65414810442087    1.31024988995255    0.61015050649838
O          -1.21809262087566   -0.25340575904463    2.39894097951709
O           1.97727922748768   -2.44369640903737   -0.32531810607500
H           1.64640019507007   -1.74422752775139    0.28577665782262
H           1.84046481133441   -3.27441881018924    0.13219341993562
O          -1.87560580423567    0.71540819166903   -2.03103930976830
H          -1.65142517038515    1.58596834210666   -1.69569555082823
H          -1.97577414675644    0.16227930455540   -1.24326431394279
O           1.34205731761843    1.18811820033344   -1.11904233397569
H           0.58981784811469    1.39341683679188   -0.52251101899370
H           2.03864863211797    0.88676845984491   -0.52788687208740
O          -0.39817905395758    2.16688939991861    3.07888856770557
H          -0.90260886342855    0.51892123166223    2.91299280205899
H          -0.38923400644457    2.11179757463757    2.10162606461523
H          -1.08328959791329    2.79768437744529    3.31163170875844
N           0.35132379090500   -1.12728251388813   -1.94722500881074
H           0.76857682183877   -0.15824273178952   -1.83199656007042
H          -0.00572257542392   -1.27157414734089   -2.88622120975907
H           1.06108119666468   -1.82331146791519   -1.63109955593235
H          -0.42984931875562   -1.16113633341750   -1.23581905578572
