    23
        -45.37922148  Gyration_radius:  2.33750834001 Dipole_moment: 2.107
 S           0.20604210271086    0.83629205751066   -0.42123846877962
O          -0.84814309235513    1.33020440346508   -1.30047801950198
O          -0.10732072154592    1.06112206602974    0.99076304235471
O           0.50870574081655   -0.55717631835112   -0.68187658227179
O           1.50253927822305    1.67973124921045   -0.68518255009902
O           0.75043466117698   -2.32259605383984    1.28968698435569
H           1.33802569532672   -1.75586489140558    1.82661086739053
H           0.79229323705543   -1.89721462048182    0.40873473396915
O           2.02558901715341   -0.08669485461707    2.14051357762228
H           2.79233510037129    0.19136609163976    1.63668396728241
H           1.28137017460615    0.44490275516823    1.79854809082689
O          -2.26044063812126   -0.91370512261585   -0.99784395518952
H          -1.90375904979726   -0.01591261810478   -1.16390336166733
H          -1.63614253096692   -1.49736673613810   -1.43982956915401
O           0.79468815413017    2.10178960265597   -3.19420787707962
H           1.51333770588417    1.84833719861355   -1.65102697921260
H          -0.00657929881230    1.80507630909602   -2.71553511457423
H           0.63784727524042    3.01432205200756   -3.44752617880141
N          -1.51115559800814   -1.06902802874173    1.55363858246745
H          -0.67618956402739   -1.75031151246629    1.57231384046373
H          -1.05689132852113   -0.11788809886843    1.52988428144656
H          -1.98852054975171   -1.14650350829188    0.61713880460434
H          -2.14806576079056   -1.18288143147635    2.33413187355094
