    23
        -45.37998791  Gyration_radius:  2.33822178106 Dipole_moment: 1.812
 S           0.35062655299589    0.04946907962875    0.90100374739467
O           0.89352288986811   -0.68357889696717   -0.25222981503504
O           1.09265045401991    1.28600089221348    1.12307769350029
O          -1.07003097511093    0.26852301947274    0.76365007426831
O           0.55554342382032   -0.87512131586938    2.14923759382104
O          -2.47567453805227   -0.74745209676286   -1.27490343690013
H          -2.26589616873219   -0.31245356339863   -0.42588768097236
H          -2.11162226269058   -1.64638096658036   -1.14773834280931
O          -0.35761331926950    2.63590327194880   -0.65453811347803
H           0.28136881713631    2.28192469374483    0.00023636863711
H          -1.20338032175178    2.60557747275177   -0.19816023221633
O          -0.84968643300683   -2.71256511867838   -0.37782464887780
H          -1.02738688335275   -2.94851738251108    0.53433295206429
H          -0.11492494781827   -2.06921456434161   -0.34392755851983
O           2.99455632712250    0.07421767103036    2.46590992464095
H           1.50396023837062   -0.77555646988414    2.38185081734752
H           2.51698109030053    0.70443341577706    1.88845577132773
H           3.17871969781334    0.54175735461148    3.28397700729074
N          -0.37323988966529    0.47315760183042   -2.21149970708397
H          -0.08633822961801    0.46526296793372   -3.18380283756251
H           0.29330331802398   -0.05568263958307   -1.58275449627120
H          -0.40339654852788    1.44223425247990   -1.79963703982273
H          -1.32204229935455   -0.00193868360723   -2.03882803287025
