    23
        -45.36691165  Gyration_radius:  2.41412697588 Dipole_moment: 7.634
 S           0.37064831435949   -0.65441197278411    0.82191595816657
O           0.27589883483020   -1.16870857638458   -0.67521907856647
O           1.74673418390684   -0.42670060534814    1.14822422005534
O          -0.44556554394980    0.57250420308082    0.84643470553946
O          -0.28090521004689   -1.71552281199149    1.58750848716069
O           3.10827879947517    1.88441089753515    1.16176214616001
H           2.73770686395401    0.98001488502975    1.13333106891705
H           3.19254226417061    2.10366218109826    2.09091409119654
O           0.98543106139717    2.47490359473814   -0.41715423272822
H           1.82529550614857    2.49025983496127    0.08150781260696
H           0.39052063784972    1.91568071184493    0.11695133492087
O          -2.18553689940608   -1.91486655622879   -1.50714778289197
H          -2.18639234991093   -2.84753319071823   -1.72958213936232
H          -1.25156889931082   -1.67834295412735   -1.33085326737440
O           1.30745787318719    0.60937689215897   -2.18681671442621
H           0.75953114498103   -0.50790452909846   -1.27293104185099
H           0.72139552151564    0.81654334065769   -2.91757744998366
H           1.27777259731948    1.40403160664841   -1.57321533383445
N          -2.54144418368006   -0.86860978462736    0.93102565537271
H          -2.73301968181973   -1.25691534229416   -0.01530014925339
H          -1.98273337089848    0.02223282132400    0.83508926170848
H          -3.36717418681971   -0.78177487496768    1.51220410203737
H          -1.72487326725053   -1.45232977050657    1.35892833643236
