    23
        -45.36135112  Gyration_radius:  2.46931488675 Dipole_moment: 8.991
 S          -0.42470500937661    0.51179352453382   -1.12886997090984
O           0.91241448833773    1.14720967832401   -1.05256461519445
O          -0.14023973815133   -0.98728180325009   -1.42872211238269
O          -1.13980476904075    0.62848242315412    0.12173693185724
O          -1.14282016169379    0.99096209386066   -2.30417452575391
O           0.98785674450022    0.59563676706461    1.70791514080185
H           0.16611929756558    0.70534585167590    1.18348342310062
H           1.65720768635404    1.05340509669132    1.19339359936543
O          -0.78035492319657    0.03328148633924    3.79395031489488
H           0.00996942743530    0.22279887889129    3.26729975402679
H          -1.28904300747295    0.84582128638831    3.81585535795877
O          -1.81008255443755   -1.52844672308705    1.76034740296165
H          -1.57640757698231   -1.14009857300607    2.62371274260345
H          -1.87296793605011   -0.77732906442864    1.15152880399059
O           0.59719493877658   -1.98708967054290    0.77866397101096
H           0.18507935928190   -1.46536479189726   -0.57648767505904
H           0.99063295210248   -1.21884558286542    1.22866770848112
H          -0.30370461731509   -2.07122276198177    1.18453631707449
N           1.03654875337877    0.88691521779460   -3.52969198064174
H           1.31249566841950   -0.03667230383476   -3.84809249291913
H          -0.03249892581161    0.92865899519975   -3.32070008708962
H           1.29361103165453    1.04471119583505   -2.46847457635844
H           1.36349885170660    1.61732877914703   -4.15331343181476
