    23
        -45.36135112  Gyration_radius:  2.46933809353 Dipole_moment: 8.989
 S          -0.75616366479588   -0.20354742572002    1.05067636548795
O           0.65558163933219   -0.51058583728014    1.00945976852818
O          -1.47850808670816   -0.91272199335162   -0.12972696017360
O          -1.45959935582010   -0.66542329703130    2.24168355037145
O          -1.00513760214663    1.24227847611094    0.83843505159228
O           1.87138024540503   -2.07117596297469   -0.95859542961887
H           2.66397446622448   -1.52530433134244   -1.11554337064707
H           1.51685146420139   -1.76780726596588   -0.10944736286800
O           1.34424446328093    1.39324134651167   -0.70676318799959
H           1.18108804744787    0.72880300066092   -0.00375224601063
H           0.75081953592642    2.11609986456977   -0.48848348644601
O           3.72247044390602   -0.02289818912062   -1.07124627677811
H           3.01291274700213    0.63477550549833   -1.11512189526723
H           4.11170742945444    0.06045383722385   -0.19874791133853
O           0.03271719191453   -0.58745096261280   -2.13630170115926
H           0.69583603102446   -1.28850982385912   -1.90777022987017
H          -0.93081081664048   -0.80957517527720   -0.99579718935152
H           0.48352177011008    0.24728186866443   -1.91833942400941
N          -3.35703820772990    0.81078178511190    1.54681939787794
H          -3.95836154598017    0.43314741151621    0.82133464305096
H          -3.86620508047016    1.40794321870962    2.18982059293425
H          -2.78426521172221    0.02173065705831    2.03429973105226
H          -2.44701590322505    1.26846327288765    1.12310759065932
