    23
        -45.36587580  Gyration_radius:  2.29145733719 Dipole_moment: 0.364
 S          -0.92402684544615    0.19954864984207    0.55705744061200
O          -1.28609169938131    0.95619580282087   -0.63463424846678
O           0.19223476622041    0.80543966754345    1.27187493272517
O          -2.17170284407578    0.18585349644153    1.48163802791484
O          -0.60739697700839   -1.19341291034543    0.20551067821044
O           1.99060715981258   -0.63327634985468    0.08646787693003
H           1.30345994623083   -1.32092789461894    0.12291857850469
H           1.56265673988870    0.08655353583042    0.61179632077497
O           0.58074488686513    2.38184941180498   -1.69387396192656
H          -0.15264279968186    1.95440261396364   -1.17298896129902
H           0.15928916262219    2.95237108933304   -2.33940666183059
O          -0.61787474536681   -1.03703839263604   -2.37167187974494
H          -1.26707278516977   -0.32602364984926   -2.43110237929993
H          -0.65875579334094   -1.28492704046708   -1.40851749464325
O           1.60631154539558    0.14034471559245   -2.26928555080152
H           1.30204148729300    1.11322166670262   -2.12380742164927
H           1.91475897783282   -0.18486047963393   -1.31246299242445
H           0.71703996888424   -0.39831797366321   -2.43553398374944
N          -0.69380035323958   -0.95954566855683    3.31421569115556
H          -0.47089116715201   -1.88505554960532    2.97150946071910
H          -0.00047176868463   -0.31357308450841    2.94610773897628
H          -1.84011448726971   -0.27325173925464    2.29968500259219
H          -0.63830234523295   -0.96556990688306    4.32450381671756
