    23
        -45.35753268  Gyration_radius:  2.47674199796 Dipole_moment: 9.094
 S          -0.35066798068176    0.30321196715185    1.01567346210768
O          -1.73085626243129   -0.18167438593860    1.11756955579185
O          -0.03192488977345    1.16486695668977    2.17116421390377
O           0.61441581718810   -0.74740084495000    0.80714176910709
O          -0.38149890880852    1.23989039184886   -0.22655742175668
O          -0.84173967382490   -1.73107892185079   -1.22903970949197
H          -0.32021937136226   -1.50337957065037   -0.44043702695671
H          -1.71579314710717   -1.38017089378081   -1.04888156066673
O           2.55777484267497   -2.26523526700174   -0.37896412439814
H           2.17200615837540   -3.12883948990536   -0.21904908106800
H           2.03377560252050   -1.64193927888337    0.15015872085994
O           1.48764948372118   -1.10895327222239   -2.59600764854289
H           2.05030419268782   -1.59130854744804   -1.95789063940391
H           0.57944994941753   -1.35436991221085   -2.35140540008388
O           1.72462810576143    1.29648524629305   -1.64269933771310
H           1.70478336905739    0.37022797419947   -2.03483994916614
H           1.57667042469648    1.89456396474645   -2.37804968030365
H           0.50428150567904    1.27468202322623   -0.72663799075740
N          -2.38480119468647    1.86730012446334    2.42244401903985
H          -1.25652660793366    1.75955198874999    2.47150945715236
H          -2.84201290861155    1.79877809627085    3.32476357909376
H          -2.67955595410845    2.69369821133299    1.91461665238170
H          -2.47014253245962    0.97109341986642    1.83541816087090
