    23
        -45.37647173  Gyration_radius:  2.33793986523 Dipole_moment: 3.440
 S          -0.42477407211348   -0.79520717976066   -0.48060091583504
O          -0.94001350565454   -1.25927115146431   -1.88445751320602
O          -1.56531960167499   -0.16337330331854    0.17147850909378
O           0.04469481708724   -1.97765590351825    0.23820985620339
O           0.65565798832547    0.15841216579966   -0.68634658069613
O           0.77219617032699    2.76528275928688    0.13796581931427
H           0.05688253572632    2.97891700919476   -0.48564311122977
H           1.12298554113904    1.93148969452206   -0.21990478286784
O          -1.16956340433141    1.98406451777379   -1.63093541844730
H          -0.50863059294692    1.27699643234670   -1.58644536354658
H          -1.97839119396130    1.57178560802469   -1.31669406126989
O           1.42327582413163   -0.65246933424937    2.06078359845241
H           0.92064996549172   -1.26736190790898    1.48060055246994
H           2.17188508448296   -0.37212903140764    1.52787162248696
O           0.70208036589133   -3.33058686045788   -1.91524850879122
H           0.28157476844577   -4.19342342533442   -1.92766249101598
H          -0.34831714581305   -1.98797631909462   -2.16983053823554
H           0.65328596534708   -3.01120364832040   -0.99109483841736
N          -0.38839757275730    1.29180268881059    1.97355682995714
H           0.05952429178800    2.05076340552925    1.37277583252877
H          -0.87210409102555    1.65445493453534    2.78742476824772
H          -1.03165748367621    0.75197782330244    1.32090425363117
H           0.36247532583649    0.59471103579755    2.22329248120014
