    23
        -45.37647181  Gyration_radius:  2.33803675088 Dipole_moment: 3.438
 S           0.73084036608074   -0.26724155248918    0.66115924294907
O           0.96925101441291   -0.59103911903770    2.17439787433023
O          -0.63382168059213   -0.64675598122014    0.32555737685358
O           0.92298663500114    1.17185719714017    0.52853583348216
O           1.69932549947062   -1.03393886504369   -0.11952466652708
O          -1.56249843524210    1.43886235632644    1.85778548714859
H          -1.27010553046406    0.55966839406727    1.57442210681126
H          -0.74858956294797    1.94151474962552    1.94571305768722
O           0.45021211830838   -0.76440434568197   -2.43187333839941
H          -0.28583124643252   -1.36558823714397   -2.29109817671022
H           1.03939568546319   -0.90610682604280   -1.65721092795803
O          -2.63894309887745    0.95890476968983   -0.61605324987663
H          -2.65386700196326    1.41806613194788    0.24137280858183
H          -2.20682567868316    0.11532457213382   -0.39679962040408
O           1.92109446932762   -2.99310032441505    1.61629659703928
H           1.93468957828850   -2.47450526509110    0.78605980947084
H           2.83773680348406   -3.14210483674959    1.85939325327909
H           1.22094096517410   -1.53826025986868    2.21887830647654
N          -0.34708472954304    1.66001110257262   -1.68476215450846
H          -1.36089452362246    1.52851706594719   -1.37996238991396
H           0.22594419586528    1.64313401303216   -0.78893773479803
H          -0.04837852018620    0.78596825385559   -2.19334895536965
H          -0.19557730234004    2.50121697640285   -2.23000053967670
