    23
        -45.36587641  Gyration_radius:  2.29183092823 Dipole_moment: 0.381
 S           0.60279684327013    0.86648124973561   -0.29842166372953
O          -0.53909784383297    1.09206348901634    0.60065440048718
O           1.16804400534610    2.25311214465310   -0.70976369436543
O           1.67039998268736    0.16209589743359    0.39979478461910
O           0.16905629639001    0.15543416412442   -1.49482040513118
O          -1.75302553075697   -1.10290785192167   -0.30341639945087
H          -1.84754772473263   -0.27939110742232    0.20435576357288
H          -1.07044994796194   -0.83738055668874   -0.96881718107479
O           0.18460392934658   -0.31900014196972    2.63691963576745
H          -0.19586065205975    0.32632254701092    1.98105755431489
H           1.13452870451619   -0.20537228799762    2.51393518586826
O           1.78446206202218   -2.38650436223227    0.03659259574105
H           1.81259334848190   -1.39106988803535    0.02679810034055
H           2.62352944289801   -2.67882124014399    0.39764887650720
O          -0.38223670821526   -2.40553873113462    1.34578662325378
H          -1.04303198582156   -1.98101586125565    0.63902219576273
H           0.49250818583255   -2.55306066242259    0.82339978675710
H          -0.17535744155636   -1.60526914780918    1.99842744877422
N          -1.04170706182309    2.66359929157052   -2.05285102491525
H          -1.31342946955592    3.14976964787702   -2.89764100236714
H          -1.78623841286310    2.75263908594531   -1.37352971143787
H          -0.92264078777246    1.67554282204393   -2.26036818514167
H           0.42810077616065    2.64827147962225   -1.24476366415104
