    23
        -45.37647182  Gyration_radius:  2.338288697 Dipole_moment: 3.439
 S           0.55667971172473    0.84911975015962   -0.10480116975748
O           1.48804548834318   -0.20130336060032   -0.49827496828101
O          -0.01433060636385    1.54776574023336   -1.25411928932837
O          -0.48705501536170    0.32532825396460    0.76422510456070
O           1.40117645130469    1.88201754225040    0.71472375670404
O          -0.90115165040852   -2.27491149551356    1.51116831698028
H          -0.07025795734018   -2.24466329780312    2.01622754633598
H          -1.12605606950127   -1.33311512118626    1.41771360588038
O          -1.83140772654066   -0.28857897760497   -1.80726077594201
H          -2.44964891713644   -0.12897683445096   -1.08945255867150
H          -1.18243505443528    0.44788844118655   -1.74600173724402
O           1.42693624260184   -1.01324295463743    2.21329454186506
H           0.80489648134235   -0.33556117400176    1.90885673349748
H           2.15823012899578   -0.95830207490742    1.59269571161590
O          -0.09227330538438    3.90543998291150   -0.09860583058758
H          -0.27411042408121    3.15134518572154   -0.69588229530233
H           0.92532134939416    2.73810530395328    0.65616857660340
H           0.35917016548067    4.56814167571013   -0.62636130396848
N          -0.13422240298594   -2.16853034775863   -0.99621614895617
H           0.66467886949789   -1.47973121486361   -0.85999517199445
H           0.13303180566009   -2.97171475439351   -1.55421442362739
H          -0.46344741989940   -2.42443413604415   -0.01430965359743
H          -0.89177015554145   -1.59208612303849   -1.44957858730904
