    23
        -45.37026561  Gyration_radius:  2.27645723157 Dipole_moment: 5.649
 S          -0.41966712585737    0.20728939341437   -1.25546353241197
O           0.21078616121427    1.10497782338212   -2.21812308598286
O          -0.84372005802683    0.95368352925228   -0.06180476194497
O          -1.65810081335794   -0.40733959923268   -1.92324507045488
O           0.49303334182666   -0.87219754029914   -0.86815279587603
O          -0.62378925382092   -2.36032494189283    1.06624914445187
H          -0.11578594826258   -2.00443458436497    0.31239066127995
H          -0.46911227092046   -1.71141577506211    1.77828728419903
O           2.41684766408963    0.28562761661211    0.43889726435307
H           1.71648826929136   -0.21675088116372   -0.05929813530238
H           3.24333020926469   -0.15969317610584    0.24482933919298
O           0.10423095643051   -0.02275108955923    2.27742601922470
H           1.03361116411453    0.01936421229224    2.02898350306487
H          -0.38461978797588    0.35785871137709    1.52448195836140
O          -2.86241171776961   -1.79522331360780   -0.14111823563722
H          -2.18973290943920   -0.90846095214108   -1.22033038925878
H          -3.18308511844615   -2.60717303209517   -0.53971326573072
H          -2.08422697781724   -2.05433607104733    0.43170986348512
N           1.15951675302509    2.50049871186478   -0.34677299003064
H           1.35962853363847    3.49237919397517   -0.28045116158901
H           0.25665238335085    2.19204373686357    0.10192195869729
H           0.93706696994725    2.12311408817953   -1.33556991508721
H           1.90305957550053    1.88326392935743    0.04486634299874
