    23
        -45.37998792  Gyration_radius:  2.33859554356 Dipole_moment: 1.808
 S           0.89816819356690   -0.12961303308232    0.33737975503037
O           1.27131053741891    0.91227262717979    1.28818150848702
O           2.01784705716352   -1.22556730200243    0.34790861555100
O          -0.34172459246867   -0.79854453658917    0.75803263112079
O           0.79757471174375    0.36135678217388   -1.01691742024601
O          -0.72048387884879   -2.44303192742347   -1.32128505653746
H           0.15352482284298   -2.76109023282078   -1.55420150862004
H          -0.60663553718093   -1.95349010251496   -0.48317576246520
O          -0.31103878312790    2.71772767095551    0.13863511043944
H           0.28946612579991    2.17381794915613    0.69166754116558
H           0.14181961089341    2.78180329614821   -0.70717442025592
O          -1.34663242889657   -0.11493662006368   -2.54641601470122
H          -1.33843016058871   -1.07408709854242   -2.35535346889606
H          -0.45006566630624    0.16256683235382   -2.27563527619519
O           2.44378380725689   -0.78329065413466    2.91194398667494
H           3.31306004597973   -0.46274838199754    3.16345322786555
H           1.95229662690539   -0.00958664534719    2.56759874516954
H           2.25842201906110   -1.32941769286475    1.29384909183251
N          -2.13117484913522    0.80866026660451   -0.24019445055948
H          -3.09804299975279    0.87101990238208    0.05822230154571
H          -2.01558064375067    0.49731734286447   -1.26266757676406
H          -1.59916776014129    1.70715767424127   -0.10096984968540
H          -1.57829623843077    0.09170387332136    0.30711830004020
