    23
        -45.38023207  Gyration_radius:  2.32662985485 Dipole_moment: 3.131
 S          -0.44996837360010   -1.11090545831004    0.77724508855678
O          -1.74806743839224   -1.09252792411055    0.15585459777249
O           0.59344344434539   -1.64204327681364   -0.12344034645139
O          -0.05033339623147    0.21311876453936    1.25319604785500
O          -0.51809129473593   -2.06249130132668    2.01053086995392
O          -1.55186247639223    2.21930679759464    0.39295415964397
H          -2.33433487395533    2.32444677179568    0.93581638319414
H          -1.05708681334547    1.46216284636018    0.78285864623533
O           1.37619962003342    2.03138161715379   -0.08614951163890
H           1.07401692924533    1.37226658344994    0.57267317411712
H           0.71761962318254    2.73224438774727   -0.04011643139929
O          -1.92219493164597    0.68109490304899   -1.80326638767669
H          -2.06727883829646   -0.08523334181724   -1.20792258621929
H          -1.93275221308635    1.44179250296133   -1.18893495255197
O           2.11272721785754   -2.32823421086796    1.90020327869172
H           1.78530307736151   -2.05655855136310    1.01836309847834
H           0.41916000004153   -2.16995004901109    2.26865989208317
H           2.42380345568964   -3.23190580211946    1.81115804553908
N           0.64588581565508    0.26185164364396   -1.92096333301921
H           1.12512918281177    0.12012801973552   -2.80312055987994
H          -0.40413492000458    0.46371466623146   -2.04719739734061
H           0.70002332138413   -0.59527309660507   -1.30198271927585
H           1.06279388207809    1.05161351808108   -1.35641904666839
