    23
        -45.37177391  Gyration_radius:  2.40173722783 Dipole_moment: 3.443
 S          -1.16343631193750   -0.15601110922355    0.13240752257563
O          -0.77736840173370   -0.15869133734082   -1.27294380513776
O          -2.59114120286500    0.47044475923530    0.19542414086759
O          -1.24073191337250   -1.50977765603877    0.68306865265376
O          -0.25670211007847    0.66792788767989    0.91994811679001
O           0.78310147004676    1.59813900179317   -2.85451931537257
H           1.04020434180904    2.13835029572160   -2.09987036478722
H          -0.01169137636946    1.12686042746878   -2.57627204397100
O           1.69356259993159    2.01948173929864   -0.14394608768508
H           0.89543330134193    1.60525384928160    0.27331412861700
H           2.06322896714281    2.61043275641471    0.51310269145866
O           1.33526141759451   -1.68733310882662    1.18824341820955
H           1.36936124177996   -0.96814498933325    1.82610914633034
H           0.37194259099685   -1.80600061851520    1.02233296925685
O          -3.13486882655912   -0.90191993392925    2.38760734812912
H          -2.95149405152869    0.18848168117024    1.06234556973568
H          -3.87684633609070   -1.50751914151120    2.32297401640874
H          -2.37972911200756   -1.33962294904743    1.94245795407884
N           1.80433512321944   -0.49463828814277   -1.12132681542345
H           0.76943040112494   -0.41518666764167   -1.36451017979833
H           1.82742191370571   -1.08052455789546   -0.24016982811518
H           2.33648609218892   -0.87782776190970   -1.89567642576434
H           2.09424017166187    0.47782567129013   -0.90010079905791
