    23
        -45.37719422  Gyration_radius:  2.33900935608 Dipole_moment: 4.153
 S           0.27351669554185   -0.73060784071004   -0.84264028882298
O           0.91198540092087   -2.11377567700672   -1.11517640318214
O          -0.28888838763857   -0.73841636612646    0.51088393555244
O           1.31792472760402    0.28915024420638   -0.95209902731102
O          -0.77255929348011   -0.55607600173231   -1.84075488668504
O           0.09632956578352    2.43946611586046   -0.08510458202808
H           0.29319436088676    2.39471134472467    0.85384277842967
H           0.63004389329927    1.71990212535856   -0.50185627214232
O           2.03090462091518    0.04375628652023    1.58228287671186
H           1.11760501350451   -0.27165264229053    1.67250991679409
H           2.04877848297167    0.35808032655792    0.65902084692117
O          -2.76315944434198   -0.16198089490686    1.14373776859065
H          -1.81847674354947   -0.42764634709999    1.02277672291769
H          -3.26896420009149   -0.97419477105159    1.08658494795033
O           2.88471486758275   -2.26057111312607    0.58695188341475
H           2.68841562657001   -1.46045628850013    1.13387275105056
H           1.64973388804043   -2.25097259309758   -0.45996765831624
H           3.70286939218688   -2.07724242371974    0.12012257589278
N          -2.18237725734856    1.38427363146010   -0.92725114811855
H          -2.82543980861898    1.89322936250758   -1.52307889665562
H          -1.67678199661458    0.58675774727455   -1.44570603074525
H          -1.39813618687237    1.99109976444691   -0.56910795431911
H          -2.65123323725028    0.92316601045829   -0.10984385590330
