    23
        -45.36639069  Gyration_radius:  2.29255469452 Dipole_moment: 4.784
 S           0.69502958304252   -0.04087607448853   -0.63924230406723
O          -0.22333761041206   -0.77781006975793    0.26964198781015
O          -0.02687221838182    0.35779484413719   -1.83743423871448
O           1.31831405071910    1.05816858665536    0.05617539844347
O           1.80759966890101   -1.05559278383966   -1.01988039434044
O          -1.61860349462209    2.20532230389564   -0.90315004216774
H          -0.96207249076658    1.60048037784808   -1.33155273848163
H          -2.37255198173070    2.25076456751953   -1.49474502735344
O           0.44608022458417    1.73673732282476    2.43466222074344
H           0.91327360010492    1.77736374052597    1.56890873685712
H           0.76544832777191    0.88263037734544    2.80588139849619
O           1.32072660673361   -0.78394862941584    2.47503085342102
H           0.74814960400415   -0.94950473474617    1.70171865131570
H           2.21615381114015   -0.75996769216735    2.13149455325850
O          -1.64012916924640    0.98105593551188    1.34101772667254
H          -1.75149649592275    1.58654444259788    0.53160271298901
H          -1.16896383963413    0.14741702907910    0.93613940251666
H          -0.81585623442551    1.40484599055948    1.93157073095530
N           0.00835965645642   -2.45063293181470   -2.27099466325591
H           1.30933330116445   -1.75250624641714   -1.53741066772426
H          -0.02596355779934   -3.02820976834601   -3.10096646858162
H          -0.58339027167995   -2.86200676778865   -1.56090449583140
H          -0.35923106997844   -1.52806982969927   -2.48756333297505
