    23
        -45.36554696  Gyration_radius:  2.6500805754 Dipole_moment: 7.645
 S           0.33281298402112   -1.10218947039415   -0.55963148060429
O           0.99883931245137   -1.25151390628614    0.73851135508674
O          -1.02526190184464   -1.61370124742812   -0.51914953217653
O           0.36179429457980    0.30789081275913   -0.98003415490342
O           1.13371507927556   -1.92369176574538   -1.60547078956906
O          -0.43970477563892   -0.00029483886031    2.56153800529229
H           0.18593047340555   -0.44412305732733    1.93869131725038
H          -0.68130417142709   -0.67201653515345    3.20156090662639
O          -3.99677598878171    2.26860822548666   -0.34453323059265
H          -3.88767635844526    3.19980424263254   -0.54935352796608
H          -4.57697215303960    1.89132195579563   -1.00962123194847
O           3.56023816018320   -0.60043849047415    0.56607323264766
H           2.61216971324167   -0.80700703059125    0.72424580766297
H           4.03795093206683   -1.41212455957973    0.74516434594795
O           2.85115659572225   -0.04202118237476   -1.96899275085028
H           2.07652510251584    0.50364372082519   -1.76014249728384
H           3.33364642788051   -0.13041291730050   -1.12013792774547
H           1.88781056783251   -1.32337218513579   -1.88720488426558
N          -1.80004552637772    0.66832234296078    0.37913270262182
H          -1.48291041021192    0.61811953695299    1.37390935732742
H          -2.62204840807654    1.26355316256537    0.21696509378649
H          -0.95656639208866    0.92899688825365   -0.19492319121867
H          -1.90332352723580   -0.32735370157192    0.05340305488492
