    23
        -45.37332530  Gyration_radius:  2.3463770626 Dipole_moment: 5.410
 S           0.14398061982784   -0.16576797252747    0.86419617209943
O          -0.17443801697919   -1.56845195070299    0.70836267853317
O          -1.02084385128290    0.61185657220332    1.32492185782889
O           1.21866136358840   -0.00221871846675    1.97373921478609
O           0.68225992476153    0.42669532620528   -0.35933688276353
O          -2.52421767121033   -0.71529024467828   -0.51324931556375
H          -2.06965514489052   -1.56348835270818   -0.48367483825243
H          -2.21511457146812   -0.26618244146390    0.29055452981351
O           1.97786066831512   -2.98786739646047    0.12150010519456
H           2.05382018823900   -3.65462882680754    0.80618123912548
H           1.11894925435792   -2.53685812190229    0.27756719969362
O          -1.19374002499540    0.94289698303094   -2.13502442677914
H          -0.34639518445415    0.64595915634398   -1.73730873724738
H          -1.84590398127488    0.28867422935517   -1.79832117569580
O           3.11266293510728   -0.56894267996274    0.33644051841910
H           2.54050548632270   -0.11513462901307   -0.29956049755959
H           2.08159221860512   -0.20989231522807    1.50819771341234
H           2.93703892345849   -1.52435157021064    0.19761454399156
N          -1.30671756733924    2.63904884780978   -0.21291980208605
H          -1.33498816619068    2.05357464186820   -1.14547886678539
H          -2.16190288587473    3.16160756357577   -0.05298699546086
H          -1.17788402449173    1.85975873904179    0.53584561841415
H          -0.49553051215029    3.24900315071905   -0.20725986314927
