    23
        -45.37997261  Gyration_radius:  2.33291291249 Dipole_moment: 3.127
 S          -0.38261118529963   -0.38284982128550   -0.77819043700521
O           0.87215164898710    0.37125042414084   -0.62602978243081
O           0.05235225687217   -1.87449519246678   -1.06559542760257
O          -1.10486312581623   -0.44636106526476    0.47987754534157
O          -1.16639014871697    0.09012762574941   -1.89426281977913
O          -0.95066417839376    1.71872121418923    2.10275142440908
H          -0.91677901370173    2.31087886601179    1.32491768449644
H          -1.35086049262941    0.90821991556604    1.74389100969158
O          -0.69015025092102    2.55972497590701   -0.46258372792389
H          -1.40628702290907    2.27353170910744   -1.03608796112284
H           0.02553421544890    1.92874776833836   -0.64334932614502
O           0.48958402353617   -1.99711475043231    1.89733988636697
H          -0.25692806024465   -1.55666109132812    1.43622281608564
H           0.84290774009012   -2.61398236043846    1.25260475483719
O           0.06071552661594   -1.40360517431050   -3.66169950251406
H          -0.57502148051755   -1.87611026594443   -4.20409461699419
H          -0.43056656957382   -0.66758191299802   -3.24016313844913
H           0.23338445856884   -1.90533604137258   -2.02904592290635
N           1.36910706479414    0.52330245653356    1.91159560654544
H           1.33868841016875    0.51496710601862    0.84588214681899
H           1.21067333060719   -0.47373388397351    2.18148332772633
H           2.23267833579653    0.90480377197479    2.28039556872103
H           0.50334453744146    1.09355573618793    2.18414088188507
