    23
        -45.37997245  Gyration_radius:  2.33283756376 Dipole_moment: 3.127
 S           0.80108043982875    0.23018372850197   -0.45286684502129
O           1.32135307706280    1.39815329778854   -1.12260222213098
O           0.73921968376415    0.34304974261519    0.99339103109536
O          -0.49841308675484   -0.18834598888305   -1.00303736596638
O           1.78223457770373   -0.97993661061829   -0.71773517398029
O          -1.33239350454986    2.30271562934702   -0.40513596578247
H          -0.50343741477180    2.77159031100688   -0.53393003671472
H          -1.18299848115214    1.43696307864695   -0.81877070185419
O          -1.59236029496012    1.21624085089499    2.06629256494975
H          -1.73783102356959    1.79950823408628    1.29457779764922
H          -0.63289359236599    1.05949226808053    2.04474049253028
O           0.45722608428069   -2.18620151408455    1.68532277924703
H           0.97958726367104   -2.66251083272788    1.03621943542274
H           0.71972578562218   -1.24664248246780    1.57416583218940
O           2.45662752889297    0.04183199056255   -3.05535052908706
H           2.08803687375356   -0.86182602724532   -1.64204623997936
H           2.01320877460034    0.75475537237259   -2.54961206616401
H           3.36675492144546    0.32255216033156   -3.17554563804071
N          -1.88988686797018   -1.13846513363447    0.96412336285906
H          -1.44264436281065   -0.82694553556436    0.04766251128751
H          -1.95073291565722   -0.23355983276557    1.53543517643521
H          -2.78739358414791   -1.59089249013649    0.83338280032538
H          -1.17406987124968   -1.76171020694379    1.40131900318907
