    23
        -45.37484923  Gyration_radius:  2.27222393833 Dipole_moment: 5.306
 S           0.99694486530554    0.84035333780133    0.48410889825755
O           1.62062453255769    0.83841444427171    1.80667116656337
O          -0.36991541410873    1.35806832237593    0.53324763764770
O           1.84475246686808    1.76350558583386   -0.41843796715222
O           1.01330803699953   -0.51140254152468   -0.07559830024820
O          -1.54771294762236    1.04341245171875   -1.82719408567685
H          -1.65332376769383    0.08132246109862   -1.75308075149796
H          -1.25657219936620    1.32005773251900   -0.93418359325219
O          -1.64263290859706   -0.72778095146136    1.51371449633141
H          -1.78003695329865   -1.20044596923208    0.67782582655531
H          -1.32274440019885    0.16286298656066    1.23541078708353
O          -1.12417164743072   -1.59390789562383   -1.07193912649444
H          -0.87926351050907   -2.23061536283425   -1.74448802904666
H          -0.27455507256047   -1.19143761911064   -0.75253899972726
O           0.83109563195317    1.55001984175344   -2.78777352540323
H           0.81059312760420    2.42506458133201   -3.18087358971644
H           1.51998957800055    1.65111652793474   -1.36169910940804
H          -0.11212040607834    1.33434652183071   -2.54447185548480
N           0.67084141500924   -1.41974549667089    2.47473576114908
H           1.10492068882315   -2.06043052862896    1.81448892935784
H          -0.35189898572501   -1.23693409609506    2.16221189852854
H           0.74358002194675   -1.74828482055529    3.43229020093612
H           1.15829783813199   -0.44755951329166    2.31757334070240
