    23
        -45.36820368  Gyration_radius:  2.36564874416 Dipole_moment: 7.947
 S          -0.69121482824940   -0.70766832883464    0.37876471442755
O          -1.97578100389317   -0.17982574074755    0.73155974718314
O           0.42432711744020    0.12457070130705    0.87259110618710
O          -0.47991516531705   -2.10936061400234    0.73136090280480
O          -0.52975242297841   -0.67011770013508   -1.19419853984512
O           1.71394895916038   -1.85494805754258   -2.16975869490531
H           0.86955367636228   -1.40090878224652   -1.97475151753486
H           1.50297685190724   -2.56702328952632   -2.77599075501098
O          -0.64591414666721    2.26806942154215    2.11651128531017
H          -0.21398918267131    1.50069001350359    1.69425517815325
H          -1.20522308224433    1.89879664706169    2.80244241786966
O          -2.40070256367383    2.39132854146546    0.02237637796100
H          -1.89249498972713    2.70378769434038    0.79295965759497
H          -2.55316896931341    1.44964114909366    0.21902034586270
O          -0.30788833934073    1.84269947382782   -1.42693883193005
H          -1.16602821190610    2.16652288861000   -1.02574463331809
H           0.36140813981212    2.00845713495789   -0.75598553261632
H          -0.48222804892143    0.32650319423347   -1.40581181234129
N           1.99897146564304   -1.86277469138817    0.48221077944829
H           1.76478360893823   -0.86261453574621    0.70154609057458
H           0.99347615188498   -2.25516832725730    0.65120800975875
H           2.19026632156029   -1.95457616725582   -0.53836451837061
H           2.72458865251379   -2.25608062637341    1.07073825225487
