    23
        -45.36855678  Gyration_radius:  2.27819372243 Dipole_moment: 3.115
 S           0.28517431889135    0.45954347389782   -0.69313118094198
O          -0.35260076869746    1.58992472223014   -0.01603856269768
O           0.37586745725226   -0.69469565391164    0.21208421941089
O          -0.35360811691874    0.11593177989689   -1.94190910183022
O           1.75597330387035    0.90728256915544   -0.96024069908363
O          -1.95127127787232   -0.94527219282360    1.44763513825976
H          -1.09512528644207   -1.17172785731422    1.02486095633508
H          -2.49825497597392   -0.62596319375413    0.69171093978107
O           1.44105910219072    0.26929292545892    2.38988974870279
H           2.09248968797519    0.91241162941527    2.10258435827110
H           1.17281237058832   -0.22715435171474    1.57823898342826
O          -2.78033588466735    0.19789038535257   -0.80364488271996
H          -2.89388991763785    1.14700532620006   -0.71418904893048
H          -1.97822536802224    0.08827235087722   -1.35052407578604
O          -0.96333651971207    1.14430794950493    2.34864744320078
H          -0.03800846871913    0.83815272644750    2.63515428701323
H          -0.76293781527346    1.48462885501843    1.37794616296322
H          -1.50029305685693    0.23133434571050    2.11375115217007
N           2.08867839448706   -1.25584041299660   -2.36504302572728
H           2.13822005264829   -2.05717288780803   -1.74906179747028
H           1.10933802804663   -1.09753870972368   -2.58966658988907
H           2.11731088482305    0.16128285058338   -1.52236967215882
H           2.59096388602522   -1.47189664972193   -3.21668474227592
