    23
        -45.37992107  Gyration_radius:  2.36384324808 Dipole_moment: 3.336
 S           0.49757876044561    1.12932155913559    0.44755219139664
O           0.34102736467776    1.04868487627598   -0.99819908608127
O           1.21912783250998    2.48159255137070    0.73932676267537
O          -0.77358165375414    1.10670004617205    1.13362975107000
O           1.38404887028633    0.05221794714227    0.93216790521925
O          -2.17930189101051   -1.01090256212592    0.44604902768026
H          -1.79434309574500   -0.22695470339340    0.90003767024196
H          -2.41787780049451   -0.66099100089743   -0.43405479852971
O          -2.08347185224666    0.40057057875951   -1.87067887655231
H          -1.21912326542231    0.73783371238958   -1.54404116066814
H          -2.66529755667390    1.16132015190941   -1.89901800619094
O           0.36278182104324   -1.12188011393183   -2.57392138859675
H           0.59427334046768   -0.26430491020488   -2.16518145169957
H          -0.52445639896011   -0.98690682283376   -2.92375726241395
O           2.10009414953153    1.47784193070612    3.02337170690732
H           1.87519465945082    0.73545950933490    2.42773886194912
H           3.05555000737915    1.47481994510408    3.11698901522404
H           1.49365364965483    2.39615869565340    1.67392115068578
N           0.15588477895353   -2.02570473224614   -0.08259042578384
H           0.41293468686349   -2.96120847191880    0.21188433272742
H          -0.86061793788513   -1.77244526672671    0.17366899978760
H           0.75291414903033   -1.28759238846206    0.38634696619431
H           0.27300740189702   -1.88363054121528   -1.12124188523929
