    23
        -45.37674117  Gyration_radius:  2.32681599503 Dipole_moment: 2.103
 S           1.35939047732769   -0.50434610212932    0.21544172709577
O           0.17682641769809   -1.29977712732462    0.55648374033762
O           2.59607698836927   -1.18828510529443    0.87771082677156
O           1.57885211601715   -0.47136595418368   -1.20878226678027
O           1.24037928999763    0.83922783270046    0.80048195593949
O          -0.70002698057212    2.05344687807860   -0.42850063880402
H           0.06806016316950    1.62197892997320    0.02776671871674
H          -0.59241673097766    2.99613817806978   -0.29117134750690
O          -0.36139073382247    0.52298087140624   -2.69709827829822
H           0.50239505787221    0.19766467909540   -2.36195374718513
H          -0.57612744398243    1.26434979812553   -2.10524710353320
O          -2.32873255956545    0.12486104468331    0.69945468928584
H          -1.95155628413143    0.96003355930092    0.37495683475091
H          -1.58725598172477   -0.33466755996514    1.11869574153393
O           1.85907555424270   -0.07683203688724    3.17054386590188
H           1.49212023038867    0.44311616284229    2.42554275716079
H           2.44056333982170   -1.04324986575156    1.83088843497063
H           2.51527828707835    0.47999241573213    3.59548464066427
N          -1.57385412876163   -1.34971315725018   -1.35201936311057
H          -1.95466529586641   -2.18882445086740   -1.77289845405311
H          -1.18407542778946   -0.64936017246943   -2.06588424738385
H          -2.24854412055056   -0.84876816187321   -0.72697775794222
H          -0.77037224423765   -1.54860065600927   -0.68291871853215
