    23
        -45.36921567  Gyration_radius:  2.28803235617 Dipole_moment: 7.088
 S          -0.45639276934509    1.34012459108562    0.51361870355901
O           0.02209095950369    0.29161150565290    1.59937660542973
O          -1.74378903391261    1.76837120760444    0.98957849830518
O           0.56107733614709    2.34599975438240    0.36891247397390
O          -0.58303228641886    0.55398649936973   -0.74594389361051
O           1.02026822112853    1.18550007160460   -2.80908828801013
H           0.33472811534737    0.95923967604613   -2.15086202722615
H           0.98788345850584    2.14006876826386   -2.89813366606583
O          -2.75634181018182   -0.58014739656727    1.55880593173459
H          -3.69345585976470   -0.46501658701834    1.38960158112480
H          -2.35776575457449    0.32054219672694    1.45362210511103
O           2.48312277976956    0.75580347173019   -0.56535398100783
H           2.22706116954302    0.79869318370921   -1.50700725759272
H           1.91295389391882    1.43179795804817   -0.14065327236624
O           1.74731347594738   -1.44057783530904    0.55296955497764
H           0.75621042756010   -0.26440281319363    1.26574918853722
H           2.10166678513174   -0.66932805363251    0.00875020734086
H           2.46841202882268   -1.69481953059485    1.13148376418436
N          -1.01184256254123   -1.80931723789118   -0.00532911938571
H          -1.71576083277656   -1.56201964020646    0.73815381303814
H          -0.10452223027114   -2.08050149821461    0.38586973432872
H          -1.35988086757946   -2.50057311209406   -0.66076758025493
H          -0.84000465397652   -0.82503518958330   -0.47335305613140
