    23
        -45.37582065  Gyration_radius:  2.37298949435 Dipole_moment: 3.951
 S           0.28221562256042   -0.73594480589282   -0.57477556041722
O           0.12657003999296   -1.69479060822445   -1.77632006381841
O           1.09398430082878    0.41403055771238   -1.01868067274653
O          -1.05036550311415   -0.28504074886836   -0.17033755571121
O           0.94816197283539   -1.44278238718867    0.49971618844997
O          -2.31761032932160    0.88728093863272   -2.17773232499354
H          -1.90194781902828    0.51329316567561   -1.37004445749724
H          -3.14249909072987    0.41330144877841   -2.29531218985585
O           0.05467716215904   -1.50271436341620    2.98839976944595
H          -0.54776506886674   -2.23928657209679    3.10130762429510
H           0.41447287728516   -1.58920297007081    2.07729652941831
O          -0.66529426174809    0.92646656071818    2.15219020574824
H          -0.57246879550144    0.12191113166171    2.70636966209410
H          -0.99376881668211    0.58095158095262    1.29167787137984
O          -0.06912988448598    0.21706969525672   -3.46811965769913
H           0.55306259574860    0.67100782812262   -2.88177257203492
H           0.02624395851630   -1.08720023855558   -2.57288224135891
H          -0.95301534262047    0.56421154574306   -3.21895997754158
N           1.77966193264690    1.07950876618858    1.35946275115425
H           1.60375979290206    0.90507800392993    0.30678128019459
H           2.21518913568873    0.23291017005523    1.72187913195117
H           2.34709616690294    1.90284303286662    1.53386817161912
H           0.76876935403046    1.14709825801839    1.78598806792896
