    23
        -45.37236017  Gyration_radius:  2.33387033007 Dipole_moment: 4.483
 S           0.74530249995843    1.02568432704890    0.45138480079631
O           0.79022857546328    1.87722658737253    1.61364647681921
O          -0.76678798550092    1.05090943172022   -0.00006268328784
O           1.56619467017837    1.42450765469649   -0.66044459967603
O           0.98526060461196   -0.39727518250164    0.81419894822793
O          -1.54163944557077    1.57335197879557    2.65070893221821
H          -2.09194549052572    2.02338121505398    2.00454886174037
H          -0.60834477342485    1.79490831258717    2.37536168793898
O           0.90259855412618   -2.14897846895386   -1.20999887634884
H           1.07796125295555   -1.61036133472909   -0.41437234513734
H           1.48005406856680   -1.77933726350178   -1.89193529920132
O           1.69936772563697   -0.00407728720078   -2.86102257222430
H           2.38545608207335    0.36744321985761   -3.41653347415948
H           1.69592983383436    0.54412840463834   -2.04184224853153
O          -0.93912578584235   -0.45648166369544   -2.06317858874455
H          -0.86184703368037    0.50876581800831   -0.84628950671371
H          -0.35676172164150   -0.06153517617928   -2.72575962543760
H          -0.42817201846976   -1.24918679535894   -1.76249609007296
N          -1.17275509560722   -0.92735551187393    2.01129317024621
H          -1.44668391273240    0.06444644215683    2.33602115313283
H          -0.18653765916461   -0.77650164397883    1.52474640972132
H          -1.09803991131233   -1.56954534745680    2.79400478420413
H          -1.82971303394011   -1.27411771650706    1.31802069448672
