    23
        -45.36357996  Gyration_radius:  2.31665344088 Dipole_moment: 5.808
 S          -0.28032569979778    1.06925711257163   -0.92917115075932
O           0.12117475719826    1.60201365905171   -2.29738986507540
O          -1.17236715018846    1.95897959084943   -0.26078567214616
O          -1.01027383388870   -0.24874011249367   -1.30470452791389
O           0.90680608435920    0.71633405637131   -0.18150017783325
O           0.94491730613021    0.57253208430426    2.61638115983856
H           1.08654693757563   -0.38220755694124    2.54367621285380
H           1.14884832594853    0.91501360260683    1.73509444671170
O           0.86815345580153   -1.78360643190517    1.00455166513476
H          -0.07612316302265   -1.96776262820099    1.04838498392418
H           0.95221496364919   -0.95890940449512    0.50332419147184
O          -1.68544930024553    0.88862250613493    2.20204605755035
H          -0.77163201381337    0.84191083073876    2.56524577207026
H          -1.63438371603420    1.50783778543714    1.45583007097851
O          -1.95863397302537   -1.25597923397751    0.83786779800943
H          -1.89590966138196   -0.45506559897528    1.46268729564475
H          -2.89122345586752   -1.46993802536098    0.77012921635209
H          -1.41090182508484   -0.68997892164163   -0.48071978359379
N           1.82448642085292   -0.24437627086420   -2.70910057243627
H           2.63959808699951   -0.14883277122912   -3.30053843928154
H           1.35386451215875   -1.11308237386652   -2.92667017638838
H           2.11028922307161   -0.26351773435843   -1.73575827996115
H           0.83032371860851    0.90949585624279   -2.61888023515377
