    23
        -45.37599612  Gyration_radius:  2.38886673579 Dipole_moment: 4.448
 S           0.90016878023400    0.23605216491884   -0.00359951123783
O          -0.17882061825772    0.20591774096729   -1.01246348023939
O           0.55468098462060    1.12789086712886    1.08721621350526
O           0.88787501198019   -1.20427118260654    0.65335231988076
O           2.19554995357712    0.45134786865474   -0.59099344458607
O          -1.03969511268346   -0.68155187990085    2.48698750030088
H          -0.33679769071891   -1.07255322386877    1.93862482526964
H          -0.62808348207943    0.10481271816292    2.86149453335073
O           1.61323217637019   -0.64173639457681   -2.90562770236469
H           0.68419130634653   -0.39827426255847   -2.82103873616246
H           2.04144707176516   -0.11669513041611   -2.19713873268046
O          -1.38060704316868    2.90790934659304    1.07536435383743
H          -0.56857246335622    2.35580196053582    1.16697557001506
H          -1.14373715292936    3.62810890551391    0.48938669497341
O           1.80303735293472   -2.67738179651221   -1.25368685899019
H           1.21964064181903   -1.83482505712400   -0.05173200977315
H           1.71983138972891   -2.03399481808466   -2.00763164781338
H           2.74541997643690   -2.78815567072024   -1.10912026082782
N          -2.26419206876009    0.47871435871036    0.43281834691831
H          -1.97610035871921   -0.04800544580430    1.30138820901701
H          -3.16411907673512    0.18136681109716    0.07334398279528
H          -2.23175230718608    1.49769512518763    0.65810116933169
H          -1.45259728121049    0.32182697469547   -0.27202133452005
