    23
        -45.36342705  Gyration_radius:  2.6072411377 Dipole_moment: 6.025
 S          -1.03055629211991    0.71293268460592   -0.41383684761256
O          -1.17433781020688    0.35755935195599    1.13946594160795
O          -1.60926110456173   -0.43950415234439   -1.08419305302792
O          -1.69464710742303    1.96933428982452   -0.63232344003685
O           0.42625149155018    0.77868384742926   -0.63539329545592
O           0.08360519940501   -1.87411059422734    2.08358028117693
H           0.60520713307807   -1.57951693103296    2.83197420260913
H          -0.50811388272906   -1.13150357237963    1.85603399901117
O           1.50780690523671   -3.12518417689166   -2.81722738839736
H           1.92987439197169   -2.49389363897486   -3.40463585712225
H           0.81308046968846   -3.56079724400354   -3.31651329051233
O           0.44373391876980    3.39822413395921   -0.00604853683922
H           0.91241374364914    2.59470970522910   -0.27808200817964
H          -0.44575715344142    3.24085306804581   -0.37407866392226
O          -0.45072873308488    2.55329040619664    2.31724994846202
H           0.00542734864196    2.97365856013150    1.53883916204978
H          -1.24400893581506    3.07336233008614    2.46328191077044
H          -0.90705003335697    1.17711190567361    1.64663474204488
N           0.50073436675068   -1.77708487694104   -0.58389090359750
H           0.96462983236309   -2.38855485617798   -1.26812928227535
H           0.84959625774252   -0.77880020777757   -0.60557532224112
H          -0.50597402036731   -1.55640148813725   -0.84677010552683
H           0.52807402426453   -2.12436851424638    0.38963780702487
