    23
        -45.36207017  Gyration_radius:  2.43407697804 Dipole_moment: 4.421
 S           0.39790328579229    1.00228159886552    0.28072049399179
O           0.97911819776045    0.71118672697629   -0.99517294210209
O           1.22173717090769    0.72336428189944    1.42720079964100
O          -0.03698438550569    2.48043701802232    0.30643128478061
O          -0.90622129154474    0.21411542023420    0.48311834721307
O          -0.12077205296367   -0.96966039478035   -2.84008593466485
H           0.01747249665557   -1.76632850554700   -2.28855042265731
H           0.41707778787291   -0.28092481384926   -2.41777882377409
O           0.23983477252631   -2.88715261890108   -0.95252009787936
H           0.91792002646512   -2.41794764552514   -0.41927398782175
H           0.59269944539395   -3.76356939922007   -1.11486035808392
O           2.22810448489285   -1.49560899657654    0.22887584880522
H           1.93493593688604   -0.83103973945151    0.87261897048697
H           2.49732261437904   -0.98008606077917   -0.53754017169260
O          -2.26470257490151   -0.25868145172214   -1.58462464232373
H          -2.70768431285339   -1.08873886009983   -1.39086029378193
H          -1.47505430974946    0.07933170983870   -0.37270548394998
H          -1.51647785746115   -0.49115098995893   -2.21683614564829
N          -0.53548488638135    2.44310591372012    2.82521187328000
H          -0.29402596321197    3.16653904921134    3.48955828109532
H          -1.43709020196575    2.05756340298952    3.07266123385070
H          -0.30858809087583    2.65124578755663    1.27694408237191
H           0.15895972793738    1.70171857711226    2.86746810888478
