    23
        -45.37276211  Gyration_radius:  2.37742859001 Dipole_moment: 7.382
 S           0.45434222897260    0.01280836327098    0.80415730050980
O           1.88987793168203   -0.11576960663345    1.08662264947719
O           0.43397252296341    0.69334979819227   -0.60876876973662
O          -0.16321728271764   -1.30340878353192    0.63749209239790
O          -0.25262348988584    0.84699533973741    1.74113096161245
O          -2.67733510752710   -0.42501598182178    0.80441616807404
H          -1.82690545689642   -0.90226092645833    0.76110258377560
H          -2.62503927090768    0.10054954982061    1.60763718927292
O           0.96478760293720   -2.93730364169866   -1.02547204013042
H           1.13053805743367   -3.74373067603623   -0.53380538327597
H           0.41958194599173   -2.36535676340860   -0.42133946860763
O          -1.54317755789677    3.07920387945098    1.08699661816640
H          -0.92714496020340    3.80884545422915    1.16264001374633
H          -1.07939192674752    2.29413921238904    1.44669352710206
O          -1.95324973709858    1.40812193401682   -0.98979869778217
H          -2.41705689203868    0.70202906056380   -0.48227304120587
H          -1.97797277532940    2.18873734934392   -0.40120200614270
H          -0.53327000594285    0.98639602260305   -0.82555628214720
N           2.57668860136142   -0.87248027883673   -1.20508318590438
H           2.39855262725608   -0.53538774500030   -0.14888260651728
H           2.07201353668825   -1.80166446977487   -1.27117452145852
H           2.07774103994600   -0.18692329064962   -1.77141092973183
H           3.55828836797571   -0.93187380976279   -1.45412218149675
