    23
        -45.37811659  Gyration_radius:  2.37718140567 Dipole_moment: 3.946
 S           0.45382992951859    0.03623541229153   -0.79372836333054
O           0.83861268866657   -0.46891755528853    0.53952781262182
O          -0.81130932102499   -0.56751656667915   -1.21321194929993
O           0.39639639895690    1.48262045809873   -0.80070498375047
O           1.55547367873532   -0.38373463823156   -1.79390349868883
O          -0.33583300800051   -2.85380274710851    0.03444074128694
H          -0.81612007265340   -2.16273763436013   -0.46013341656567
H           0.24982586377619   -2.33520240248502    0.60369935804875
O          -2.33427772323837    1.17230391255648    0.02802353744561
H          -2.10681237332401    1.97981973315003   -0.44155163002807
H          -1.90434174913072    0.45770953553467   -0.49819612910358
O           0.86235588953025    3.11430527644641    1.20386547698953
H           0.72902208542782    2.63095932465048    0.35380736572133
H           1.81163047833292    3.19423854275043    1.31021911669016
O           1.31468465819081   -2.96201676293617   -2.02488176329415
H           1.54263463714755   -1.37840911231921   -1.89214729697661
H           0.73818431717264   -3.13040992076444   -1.23724512221598
H           0.76949926807928   -3.12722636871089   -2.79724318590695
N          -0.60474719401498    1.06016808807481    2.02253291666909
H          -0.07696392448229    1.96443732344281    1.98253549358450
H          -0.86944477952405    0.79219132559204    2.96384057690322
H          -1.43658217913877    1.14300128446405    1.36789429602964
H           0.03428244100620    0.34198348182855    1.54256061718164
