    23
        -45.37693814  Gyration_radius:  2.30866864062 Dipole_moment: 2.684
 S           1.07798070801866    0.57001851827056   -0.38431957983332
O           2.29657700291036    1.20663048228255   -1.12548385026891
O           0.89439777805166   -0.77992684310415   -0.91686095730418
O           1.41225204757965    0.56776708238768    1.03085613059462
O          -0.09605177874585    1.39926729790458   -0.64892302314907
O          -1.98572487491155   -0.47459693921108   -0.96258646315262
H          -1.47046071567990   -1.21079917490167   -1.30225851149474
H          -1.37197872130318    0.28531423873716   -0.98175621240930
O          -2.10183210981083   -0.79866850728892    1.68470919574564
H          -2.31186662141086   -0.75042607192451    0.72380499581368
H          -1.32105799204864   -1.39698608531307    1.72299579207262
O           0.28059639823034   -1.98460636852818    1.40343318154708
H           0.94287544153694   -1.54924200800799    1.94667813451655
H           0.49491971654600   -1.69656225928103    0.49559305607856
O           1.70646090568714   -0.13288566688934   -3.33386460511906
H           2.37897619840417   -0.73350008670492   -3.66294801285437
H           1.27315742935529   -0.58334803160822   -2.58144938209042
H           2.19269356056416    0.95785146125608   -2.06723208127526
N          -0.87922058709665    1.45572500789284    1.83343513980614
H           0.12822208629150    1.14908663912568    1.85385011340017
H          -0.94004451975162    1.79662547438374    0.85429178318005
H          -1.49022166893749    0.54254773926615    1.89383300689446
H          -1.11064969347869    2.16071409125743    2.52420213930147
