    23
        -45.36554784  Gyration_radius:  2.64979550999 Dipole_moment: 7.627
 S           0.97938535741870   -0.34105703247737   -0.74671534069792
O          -0.12985606339081   -0.44987565784953   -1.70006965638779
O           2.08840154899922   -1.33332488516425   -1.18827425036220
O           1.54063055303871    0.99791985823301   -0.73862542829143
O           0.52887432898541   -0.74080861192698    0.59609215873269
O          -0.06348465292302    3.18148909980917    3.33220601758157
H          -0.40470322396433    2.83448460588360    4.15938262381258
H           0.80022355115874    3.56013131722774    3.51073373237486
O          -1.95049451113350    1.35145163194573   -1.06750635317306
H          -1.35078855123661    0.61540488690323   -1.34107947731553
H          -2.02999526032115    1.91544236842294   -1.83872463572786
O          -0.93569155012349   -2.96276286719913   -1.92497232106881
H          -0.73200416294724   -2.00330760694408   -1.85814010670387
H          -0.74001562380136   -3.20917206845709   -2.83057738398962
O           0.94732598815702   -3.33289015106420   -0.03917741761235
H           0.20627099828042   -3.44886312856063   -0.67058614330865
H           1.80964876704511   -2.22127576933280   -0.81068662894360
H           0.65455128193292   -2.63083092566392    0.56314419108806
N          -0.26470683633186    1.68587035336269    0.95891819233570
H          -0.27618467202500    2.28656326076087    1.79279691342840
H          -0.14283737464697    0.66051264268200    1.16592443802310
H          -1.10574198103647    1.77072503819184    0.34389450114923
H           0.57119209887512    1.81417364123103    0.33204238506395
