    23
        -45.36892104  Gyration_radius:  2.39484718056 Dipole_moment: 6.492
 S          -0.59543723314074    0.95709880073015   -0.45689629909290
O          -1.57799153012834    1.32272699619787   -1.44922511365522
O          -1.17221380989279   -0.33781922640247    0.24646418978745
O           0.65476019434163    0.48043567907127   -1.09631116953968
O          -0.33396067406480    1.94484275582061    0.56436196965131
O           2.32112233999192    1.69957743163383    0.68845825790295
H           2.30960121443215    1.25099963112256   -0.16533990787604
H           1.40602099100094    2.03031753547454    0.76363183968319
O           2.15638064256679   -0.26240150259612    2.47550819783835
H           2.31567303748424    0.44810026804030    1.80542331002477
H           2.68627326336872   -0.02842120877205    3.23923105634073
O          -2.61336630710359   -0.92908094952057   -2.14015705389122
H          -3.09483994636795   -1.16310273496611   -1.34250813327124
H          -2.32372383677973    0.01258490250094   -1.98681134177891
O          -0.47631543900797    0.21961687036712    2.63219932718677
H          -0.45548357094791    1.13212658490800    2.30564590915598
H          -0.96300782157328   -0.24426544463802    1.22922055829516
H           0.46533272272088   -0.06674840973409    2.67578830970573
N          -0.12972968748356   -1.73207337754577   -2.01490309608180
H          -1.18101972673225   -1.52363953461985   -2.11564593554830
H           0.29417091527226   -0.76537309756693   -1.64982593382275
H           0.02459555720161   -2.44300827834618   -1.30650816217804
H           0.28315871488122   -2.00249368118049   -2.90180078882761
