    23
        -45.36399140  Gyration_radius:  2.64040086766 Dipole_moment: 7.064
 S          -0.30723741192713   -0.67437374440406    1.00959295613357
O          -1.01119529419978   -0.27072156699354   -0.21809613512229
O           0.20248466286380    0.51007678637574    1.70845414512172
O          -1.31818772968249   -1.38877615844007    1.94390038030347
O           0.74649792020709   -1.63201645435292    0.71745104729556
O           1.67361917197698   -1.49884147473267   -4.02773295381967
H           1.01340525463190   -1.34839867901745   -4.70797658335784
H           1.88599935183137   -2.43484406358905   -4.03301950595509
O          -1.85801639443461    2.00881777097945    0.94806090606420
H          -1.89268114303108    1.39356825686768    0.20007002463967
H          -1.00368443246317    1.77924868103817    1.35881412797524
O           2.13042763447671    1.46855920731965    0.18499125179143
H           2.93403213543626    1.43786186081454    0.70661590261554
H           1.40843101313504    1.18615758976181    0.79799288281785
O          -3.04535447433386    0.42164948730582    2.68437314104881
H          -2.03876359779609   -0.75346324828041    2.21835999587504
H          -2.76571342548057    0.72699347385636    3.55001458810730
H          -2.77216725178068    1.12522286300311    2.04078473574502
N           1.23330135228320   -0.40892145053366   -1.47414623667702
H           1.32702160829288   -1.14839261470765   -0.72440654984731
H           1.48183074116168   -0.71733917233503   -2.42238538873573
H           0.21110811698061   -0.19867762128752   -1.33871453676724
H           1.76484218184770    0.41661028135936   -1.12299822524993
