    23
        -45.37350738  Gyration_radius:  2.31080048741 Dipole_moment: 7.155
 S           0.09239987441675   -1.04519526435033    0.37755711269692
O           1.12765390687079   -0.98204514958765   -0.65463248853070
O           0.61996701133192   -0.90274719132491    1.70979690588453
O          -0.88171691519268    0.15414329934224    0.08426042661289
O          -0.77412807621203   -2.21214227495652    0.19305417944511
O           0.21068365283075    1.29151899645929    3.16029281447220
H           0.39986243051711    0.43767231560216    2.71682589291506
H          -0.51246351053124    1.12101017265561    3.76467268582238
O           2.66594785510177    0.82938908448351    0.53042351149557
H           2.72927254202447    0.49286515841980    1.42835597775096
H           2.25759299820305    0.10455957421094    0.01735840541483
O          -0.05242725413532    0.02877076725739   -2.71499269098157
H          -0.09995782764749    0.96117302318678   -2.48884427863200
H           0.53995314967424   -0.37563063478414   -2.02691384860558
O           0.42243139319279    2.24863902194912    0.64926841132639
H          -0.39560824635536    1.03358572362796    0.29304048003933
H           0.29688568881156    2.22940454841702    1.61714243418552
H           1.34471455821587    1.92020340316799    0.52268042963886
N          -2.03055165953994   -1.47413365135175   -1.86340720015198
H          -2.83313991618902   -0.93438403825984   -1.55403700054104
H          -1.51155399943481   -1.87658340332691   -0.95520840661331
H          -2.30869328254649   -2.22210531722387   -2.49085681687036
H          -1.30712438340634   -0.82796817361254   -2.31583695677435
