    23
        -45.37703254  Gyration_radius:  2.31049651524 Dipole_moment: 2.509
 S           1.12789555293041    0.54272227021643   -0.27184601127702
O           0.58274266156325    0.91592006687816    1.03392583078960
O           1.20572943503816   -0.91333538104602   -0.40869872623020
O           0.38511532586578    1.12739865144606   -1.37201524690070
O           2.58079211394145    1.10942268054405   -0.35209312070238
O          -1.94989296176950    1.62420411450817   -0.15597283860126
H          -1.12953754551178    1.59672425255596   -0.68485605466278
H          -1.64557567950315    1.76008872466183    0.74547652786549
O          -0.77747081790862   -1.33851179333197    1.55099535183034
H          -0.10031685133191   -1.95318637396122    1.25556405513052
H          -0.34528804509890   -0.46478423540708    1.49238976316053
O          -2.60815477927663   -0.95360951607458   -0.35614720917485
H          -2.61690819906595    0.03003563093454   -0.29836392878170
H          -2.10789166666026   -1.23046705286135    0.44543282311969
O           2.91405949481687    0.70524944451880    2.24423097665535
H           1.95240512760609    0.74065212068211    2.06972962077071
H           2.98440498084365    0.91667472670866    0.51943532417980
H           3.12263229684547    1.46825067692334    2.78798268973567
N          -0.72525640832348   -1.16707677450658   -2.09100201847134
H           0.11744902414726   -1.29308466495819   -1.44694488026346
H          -0.77058251222427   -1.85064596378604   -2.83866328331753
H          -1.61100014016894   -1.16324534919099   -1.43504702044205
H          -0.58535040675487   -0.20939625545328   -2.43351261441211
