    23
        -45.37703264  Gyration_radius:  2.31071424214 Dipole_moment: 2.512
 S          -1.13792329330744    0.57244124772083   -0.12908808615759
O          -0.82364289705382    1.10440761396132    1.18322060434996
O          -0.19280453605793    1.06594535537403   -1.13308649108786
O          -1.19741630091274   -0.88966511124678   -0.14227174650167
O          -2.55754686006921    1.10229776660309   -0.50643953236669
O           0.34037245899935   -1.03652287959571    2.29574092572928
H          -0.11046526586369   -1.73979054720482    1.82039553484663
H          -0.15184433730379   -0.22873717364071    2.05342913136020
O           2.58295347038590   -0.52420541471686    0.94447416770460
H           2.28376951858341   -0.96331221521624    0.11556766217025
H           1.91779227003966   -0.80891712175162    1.61344352600890
O           1.22391431573660   -1.37205181883543   -1.19342637237998
H           0.33212684398941   -1.34872414147665   -0.79634952851838
H           1.19466323329160   -0.69189730735220   -1.87172483089353
O          -2.93432886187915   -0.96227840549067   -2.12239281808193
H          -2.85644602532425    0.54119834243851   -1.25169643704417
H          -2.23380756235430   -1.20719549108577   -1.48537706763090
H          -3.68307415322137   -1.53463786736031   -1.94063956885277
N           1.63514124001183    1.82428476373454    0.51226535770606
H           1.01053560591481    1.62818063586946   -0.33168020745691
H           2.17081903217226    0.88341784900760    0.71881079429780
H           2.24446951037866    2.62543460856322    0.38887073142976
H           0.94274260384101    1.96032733170037    1.25795425136893
