    23
        -45.37992113  Gyration_radius:  2.36400953617 Dipole_moment: 3.339
 S          -0.19454345597967   -1.27303941503801    0.25400327006424
O          -0.01216502480296   -0.93961331167724   -1.15195517074032
O          -0.54029951470373   -2.79368370803189    0.30638193864833
O           0.99868759251406   -1.02584042772809    1.02986741826929
O          -1.35307047483430   -0.54636278424374    0.81135802446601
O          -0.55240078532721    1.36132561034532   -2.42123760584369
H           0.35150271858380    1.51355706811374   -2.71711593806742
H          -0.56290842863040    0.42197939354784   -2.15034545171763
O           2.18241125573328    0.43521101314275   -1.74586343899952
H           2.94661114225557   -0.13630355784326   -1.83213271781214
H           1.42778612741187   -0.15875864507119   -1.53281765764322
O           1.81275687907410    1.46134955956035    0.74005673958715
H           2.16866855857166    1.32054289006468   -0.15848629099557
H           1.63415283238781    0.54584498627359    1.05452006884172
O          -1.74089902951842   -2.40463639580873    2.63211887341651
H          -1.69977178076315   -1.54884541412885    2.16055852293599
H          -2.66553885120934   -2.66169324273864    2.65471462822894
H          -0.86258830657151   -2.92283840731222    1.22040410219035
N          -0.68710183490752    1.90523076601320    0.17748369530315
H          -1.08277963252202    0.97662513190421    0.49751299404727
H          -0.72333584782920    1.89406085197665   -0.87667199391330
H          -1.19496163326014    2.68791163611189    0.57427737448818
H           0.34978749433747    1.88797641257334    0.47336863523509
