    23
        -45.36886617  Gyration_radius:  2.38648133293 Dipole_moment: 7.673
 S          -0.79789329857453   -0.73363611795421   -0.14496160397702
O          -2.06972112984179   -0.35463633333471    0.40119078741231
O           0.31030239309962   -0.52533174321777    0.79011814550300
O          -0.76049651527902   -2.09713436835889   -0.69263202182232
O          -0.47678133741906    0.15418434985481   -1.40473892247165
O          -0.20915126541200    0.77859734124530    3.08043535829997
H           0.06200844056915    0.31670484335252    2.26212486256873
H          -0.71846705873369    0.14079571597516    3.58371938090241
O           2.68788259335779   -0.96405630735488   -0.13267519184403
H           1.82468434724020   -0.68784722006004    0.27734665510951
H           3.13900318427922   -1.47914641175913    0.53848233447328
O          -1.98178122185218    2.08899284399533    1.49252853382897
H          -2.24045901528666    1.21243726051648    1.14703218968918
H          -1.34556632999874    1.88265787162869    2.20426435978500
O          -0.65063751395783    2.60072080729555   -0.66802525059278
H          -1.26126161680525    3.07497514335985   -1.23598311766881
H          -1.11717261603637    2.51567095112045    0.21798865008465
H          -0.51579340765456    1.12073688947094   -1.11808282019438
N           1.25291166514340   -1.82801265985169   -2.15841757723290
H           1.00446490804550   -0.99904601969656   -2.69479356207087
H           1.99388136748197   -1.56506189809757   -1.44981787979316
H           0.33689066096582   -2.05564806878268   -1.53726470946101
H           1.53315275668341   -2.59691686933829   -2.75783860053106
