    23
        -45.37992117  Gyration_radius:  2.36394488328 Dipole_moment: 3.335
 S          -0.11208093651892   -0.93579735312438   -0.91370860914305
O           0.66592516821963   -1.30346800736790    0.26130079194548
O           0.52351473906544    0.11107119405514   -1.67989380153386
O          -0.22509442125234   -2.22232825202382   -1.78924150198063
O          -1.48498238671216   -0.55416408609267   -0.52584428770114
O           1.02162000244143    2.21237876084041   -0.17348163976543
H           1.77639844541419    1.79813093838915    0.28763312099481
H           0.84524400939184    1.58972408024380   -0.91516106028383
O           2.66359763126963    0.33110787959147    0.89144967282951
H           1.98948024552490   -0.32024970829574    0.59320592113901
H           3.44911293201401    0.14717971600489    0.37444705467425
O           0.47638460789592   -0.36589756746872    2.76766954529591
H           1.38126234692148   -0.03833308438833    2.80836458273909
H           0.46995950740918   -0.96230169866665    1.99298189626881
O          -2.42359232012965   -1.23980582619168   -2.88573019684987
H          -0.91916467465359   -1.99567338875322   -2.43956395313097
H          -3.20298285623329   -1.79156855150382   -2.78730044112868
H          -2.28433023112588   -0.79630568136820   -2.02526633971296
N          -0.94777485947178    1.29065574700107    1.25291058802751
H          -1.31371744963195    0.57499639295245    0.56359113976564
H          -0.18385477862521    1.83313004013912    0.71881339875532
H          -1.68660278948939    1.89264232339729    1.59889361940761
H          -0.47832191172823    0.74487613263821    2.02393051938825
