    23
        -45.36921559  Gyration_radius:  2.28800912451 Dipole_moment: 7.086
 S          -0.50459148215705    1.37220960915334    0.36194397916616
O          -1.73333183322167    1.78040872683934    0.98705158353339
O           0.25494305743434    0.57406771140704    1.49934894145866
O          -0.75421438302539    0.36577648627713   -0.70812911383887
O           0.36275047706208    2.40985506686684   -0.12672935622726
O          -2.38372957912516   -0.49802281194365    2.10561038261300
H          -3.34274405339424   -0.48646246634360    2.09026310835327
H          -2.10533019802695    0.39678210073452    1.78468428275297
O           2.26084667372713    0.82760147056570   -1.12167340259470
H           1.84936150338909    0.68130977946372   -1.99539588699255
H           1.70071459498156    1.52375562763277   -0.71676400322950
O           0.40982541281446    0.73641308048770   -3.10258493290963
H          -0.12973786910571    0.58029300998202   -2.30323471535928
H           0.26298409326717    1.65465703545496   -3.33812665904823
O           1.95756762869317   -1.18204652723371    0.45505621080543
H           0.97904948678329    0.02517679642778    1.13374080452716
H           2.13320793485974   -0.49636075514881   -0.26285283705747
H           2.78732777097294   -1.27335302795154    0.92669183273124
N          -0.80097369831074   -1.85208246791211    0.47384084381858
H          -0.81456997192939   -0.95749430157645   -0.17163825513783
H          -1.17743977978074   -2.67393988064957    0.01413881021514
H           0.18230265073001   -1.97888093508943    0.73255371145269
H          -1.39421841656370   -1.52966330745797    1.28220469095580
