    23
        -45.37694095  Gyration_radius:  2.42251594205 Dipole_moment: 4.263
 S           0.05228296278712    0.27937171764508    0.80090983220220
O           0.16366570197617    1.62580583011495    0.25522262012526
O           0.69068952432283   -0.70023367351427   -0.10260751212152
O           0.51062016843553    0.15122774848746    2.15641113002035
O          -1.48480581127614   -0.05363275563029    0.74463810948178
O          -1.74433797200313    1.52456610322467   -1.57116173077065
H          -1.13865199129567    1.78589916991803   -0.84354226001497
H          -2.40752458059140    0.97774826091612   -1.14084643458983
O           0.11971719162886   -2.12496439406181    3.44359748538298
H          -0.36289661039535   -1.90044898681384    4.24083400834965
H           0.39119559961411   -1.26935932335059    3.04396246979805
O           2.01843943294745    2.25654191039977   -1.54032129534532
H           2.87968565640517    2.12733337248222   -1.13994599422573
H           1.36854836288763    2.20465399735089   -0.80520682895624
O          -0.95504589234578   -2.54596948080999    1.03286127484859
H          -0.16060037871824   -2.31687209568578    0.52910286751472
H          -0.65002528232070   -2.61970361180238    1.96337394847364
H          -1.48835034883933   -1.03996511315158    0.90510990865361
N           0.44090927918249    0.31022123226294   -2.44116175450129
H           0.53715647546897   -0.26887042129327   -3.26752321077068
H           1.15279204970177    1.07532344315127   -2.39295501376744
H          -0.50949108876064    0.75751576955305   -2.35422853055651
H           0.57602754119650   -0.23618869940862   -1.51652309926444
