    23
        -45.37992111  Gyration_radius:  2.36411275375 Dipole_moment: 3.335
 S           0.70328711359030    1.10161352523855    0.12593495402399
O           0.76326176380357    0.47047279903082   -1.18530127515889
O          -0.69090654844567    1.44557066924004    0.47063042726722
O           1.30706598555786    0.28204021615876    1.15097923237299
O           1.48925556500908    2.44413093857261    0.00681080258703
O           0.22532713041290   -2.11808139302269    1.19696723196933
H           0.67741531010962   -2.42155127280330    0.38614903007669
H           0.68836003932065   -1.27538184063639    1.40767761398718
O           1.46640881544646   -2.09128974965417   -1.21742002098000
H           1.30725128518656   -1.12056506946770   -1.20525737740438
H           2.41783795824746   -2.19931124906190   -1.18391196111539
O          -1.06194231410485   -1.08412511130193   -2.38938292678825
H          -0.48231137336024   -1.84836237262981   -2.47722905182709
H          -0.45633065841229   -0.34365791775040   -2.18734502412177
O           0.09880642527633    3.39862207173369    2.04555331659921
H          -0.39399743945583    4.20021110537060    1.85551073285174
H          -0.40466895832509    2.66003057566269    1.64859463251281
H           1.24411179650197    2.92521447375503    0.82200284335898
N          -1.81842710077161   -0.89601993796846    0.15210447412228
H          -1.50337505958428    0.10068846223977    0.32106299597693
H          -2.76372588476045   -1.05353854254745    0.48310994826343
H          -1.72112567116676   -1.06452338324270   -0.88458071981859
H          -1.09157820008718   -1.51218698692149    0.65734011128164
