    23
        -45.38023213  Gyration_radius:  2.32655112924 Dipole_moment: 3.133
 S           0.53661480794469   -1.31883425716974   -0.11399603329944
O           0.86352338376707   -1.36774187664841    1.28675569475801
O           1.02409167729717   -0.09494599494629   -0.74935158834018
O           1.22700453709690   -2.52915186535537   -0.81369207627631
O          -0.91504197983769   -1.44905274026833   -0.35397670080610
O           0.01222517381207    0.76040251950068    2.61372849509547
H           0.69120307228939    1.34516570063724    2.22220257819667
H           0.32635247058183   -0.13645145367437    2.36938456976870
O           1.85938698785946    1.78439846266517    0.92092334486401
H           2.76610506180907    1.63126630436510    1.19008754139069
H           1.63627328746289    1.04842613937052    0.30561506514120
O          -0.32226708657152    2.19091668924709   -1.05829486384093
H           0.16476219897380    1.35664697191840   -1.22166383024225
H           0.30824348635492    2.74599202359667   -0.58783461585102
O          -0.51996883399187   -2.33028045690296   -2.79166387004602
H          -0.90226691265024   -1.91818737288383   -1.99002213808964
H           0.82250007636345   -2.53969622154238   -1.70413041024403
H          -1.03007745916448   -3.12546603612352   -2.96147102714633
N          -1.74755705301765    0.80204054269913    0.69384143547643
H          -1.14934105145376    0.85467003775115    1.58745860937676
H          -1.35605065061254    1.49601840265823    0.00004432894779
H          -1.56145806358878   -0.15480026887421    0.28090828923726
H          -2.73425711072351    0.94866473997381    0.87514720192767
