    23
        -45.37591290  Gyration_radius:  2.37957492611 Dipole_moment: 4.170
 S           1.15424828567187   -0.16741397497936   -0.94036048015310
O           1.53784502305534   -0.77170329869011    0.33127637913145
O           1.62152554843145   -1.16761100369111   -2.04818186627129
O          -0.31545069307476   -0.07721641197644   -1.03723491047045
O           1.76595995365373    1.12278683999566   -1.15470622316724
O          -0.05602164965295    2.51580661606802    0.07651522284876
H           0.72195032271847    2.20119912729188   -0.44515989041795
H          -0.80329475895613    2.10368029719296   -0.36833168807625
O          -0.93334845228110   -2.03215306961804    0.63074362254815
H          -0.83931321481015   -1.32662599934772   -0.04441122496753
H          -0.02503136447994   -2.30560155853775    0.79585841491048
O          -1.65387551943584   -0.55211392024146    2.68704996065625
H          -2.54095691432865   -0.23501638004211    2.51108321785517
H          -1.45565469727762   -1.22030661987850    1.97795860419212
O          -0.32353999211487   -0.34989244171478   -3.65834271520582
H          -0.93525166203535   -1.04045959699602   -3.92358700869738
H          -0.55596156472449   -0.10819698699158   -2.73962465180624
H           1.13199633576815   -0.91180123606992   -2.85633131843959
N           0.50542656651794    0.87761049507050    2.07159857600854
H          -0.36071280219657    0.40123243463550    2.43994703902766
H           1.09634450164836    1.21381085549594    2.82437259959139
H           1.02392842579607    0.17083951645489    1.46724016947388
H           0.23918833210999    1.65914629659394    1.40262817141872
