    23
        -45.37591286  Gyration_radius:  2.37950176378 Dipole_moment: 4.171
 S           1.07228180414287    0.48357863278847    0.92775908611948
O           2.43609675658716   -0.02463786692256    1.50021757766801
O           0.03764003672113   -0.14074280327748    1.74588200952697
O           1.02797574744252    1.92610361562536    0.97351578458007
O           0.98330430956172   -0.00332557154714   -0.46244086909234
O          -0.69997063751120    2.22489267011439   -0.95029421344867
H          -0.03501381052934    2.34747413067014   -0.22972735942263
H          -0.25168944490061    1.64070549223498   -1.56985367450957
O          -0.20753697836193   -2.31425889510630    0.01383933944482
H           0.27883069973840   -1.51837730257865   -0.29026632882821
H          -0.20080357926613   -2.22708865209328    0.97273898048900
O          -2.63042169177311   -1.65186077082339   -0.77909550356092
H          -1.76152499964840   -2.04194487594494   -0.49359293156911
H          -2.63458368830506   -1.68856702156820   -1.73676161059345
O           3.57388593370133    0.23073807558209   -0.88399830363551
H           3.09828962971626    0.15803476144469    0.80284009160753
H           3.93247843487533   -0.58405861021585   -1.24305504266251
H           2.60419100699663    0.18625463011963   -1.00339288280043
N          -2.15680728773595    0.60741005483984    0.54651557724919
H          -2.48773400929832   -0.23391088814198    0.00297199070961
H          -1.73391934949375    1.32714659482826   -0.11094879788913
H          -2.90072181645774    1.00536402499057    1.10955623817643
H          -1.34424707620639    0.29107058498863    1.15759084243470
