    23
        -45.37591288  Gyration_radius:  2.37964082275 Dipole_moment: 4.170
 S           1.20675558502270   -0.58895594603154    0.66474018624988
O           1.46792535165246   -0.56675333626050   -0.77078186184922
O           1.89926480791649    0.45923123842256    1.37654197542753
O          -0.24577827429515   -0.52780271063785    0.91770844152421
O           1.69672089191580   -1.98630788412693    1.16812367853396
O           0.07280871946349    2.28572642547750    1.05428985737698
H           0.86710783566687    1.75766891627335    1.31253351895474
H          -0.66294101331083    1.73163349658446    1.33319246659093
O          -1.86452328308348    0.73433278283366   -2.49871708990077
H          -2.71912713409255    0.95347473182793   -2.12445482445483
H          -1.65283981393719   -0.18352229117196   -2.18037639201952
O          -1.08155348741692   -1.52058385265186   -1.38490413408537
H          -0.90294888318765   -1.19281494586193   -0.47762986593284
H          -0.20293684957015   -1.70626158628465   -1.73218190625277
O          -0.08555907752286   -1.94390287940045    3.13419479795231
H           1.27830479774083   -2.11104008383914    2.04427308474776
H          -0.36834782882448   -1.31296944834982    2.44246990747867
H          -0.71311656349276   -2.67006235502935    3.11655235368831
N           0.40527126005946    1.70305959028023   -1.50086784314850
H           0.92654326570606    0.79229720504545   -1.32053797290847
H          -0.50852623468986    1.45574230224158   -1.96620310582545
H           0.22837559580997    2.10724087270747   -0.53410511989173
H           0.95912035248135    2.33056975796708   -2.07386017224662
