    23
        -45.38101018  Gyration_radius:  2.3574205844 Dipole_moment: 2.417
 S           1.16508695703524    0.27089615064208   -0.60588280169073
O           1.26361980996056   -1.17805892914717   -0.71695568955124
O           1.08561991760209    0.69404890761205    0.78477190198720
O           2.46631416010882    0.90091512528596   -1.19051172868844
O           0.03555574235855    0.78561981474706   -1.38271976010088
O          -1.22352082049267    1.58708585679180    1.72717822304333
H          -0.34379522645308    1.35242895932428    1.35257581404596
H          -1.31353495535779    2.53425254352408    1.61499988821130
O           0.15578354145403   -0.75347874526765    2.86390037716216
H          -0.50537051286366   -0.09807882959830    3.11213116296062
H           0.75509121621117   -0.27483085035552    2.25895054310643
O          -2.19344680625669   -0.06759098382483   -0.19937613576923
H          -1.49364688825727    0.25914463699615   -0.80372038041044
H          -2.14599663590076    0.54770815860863    0.55682063946023
O           1.42181080886400    0.62367541199094   -3.60347154154881
H           0.68976794478120    0.62479729550958   -2.95345291100699
H           1.31882314529815    1.41842915444460   -4.13199826253259
H           2.37372280699147    0.75161654960093   -2.15287139926808
N          -0.71982855853612   -2.03500348089117    0.70277129910844
H          -0.99854478874151   -3.00883524418619    0.66623725016307
H          -1.47441926566782   -1.37106502368921    0.34122317059300
H          -0.45023480651777   -1.72529186276486    1.67236814872715
H           0.13114322443049   -1.83838461525637    0.08703218203519
