    23
        -45.36882589  Gyration_radius:  2.50534751104 Dipole_moment: 5.027
 S           0.07772979241899   -0.99209689916563    0.75820653132198
O          -0.19686789343084   -1.93611300782692   -0.32028366981826
O           1.03378572177386   -1.40696507445457    1.74021758501475
O           0.38453988125004    0.33931232071418    0.18335776959665
O          -1.32426714624655   -0.78186268443638    1.45218170954040
O           1.58767980173464    0.79408987982856   -2.12878711210452
H           2.02026091596150    1.64135194279349   -2.00951472151355
H           1.21322251813186    0.55638418135693   -1.25104181310315
O          -0.45711014424068    0.30235610437294   -3.73746288362647
H           0.36211227865350    0.56100243311781   -3.24789123468445
H          -0.21774052344815   -0.47255157764990   -4.24945253440743
O           1.43880494628027    1.37402120649758    2.41210781837627
H           1.06108978326991    1.11462566951901    1.54931811054194
H           2.17414008883124    0.76969427976797    2.54450232251231
O          -0.37935022426598   -0.08028137806353    3.75619668765810
H           0.21172873170849    0.63493828939713    3.42885062589633
H          -1.12711509138395   -0.48892479778666    2.38682003202080
H           0.18160785295700   -0.86328018183558    3.78380784443412
N          -1.65706992064006   -0.20193760256775   -1.43244176930900
H          -1.16143371726959   -1.10902044065843   -1.07708481837915
H          -1.34646705986156   -0.00298319674502   -2.42565288982818
H          -2.66405893999230   -0.23514137456695   -1.31584147886373
H          -1.21522165217413    0.48338188839338   -0.80011213127167
