    23
        -45.37997262  Gyration_radius:  2.33314247462 Dipole_moment: 3.118
 S           0.53179504177529   -0.43593058224841    0.65128639896620
O           0.91622923131397   -0.49758865535192   -0.74763039472287
O           0.51916107604203   -1.71242285375248    1.32489423165452
O           1.62916125063383    0.47842111403321    1.32731128149149
O          -0.73940182712087    0.28741437866111    0.81528546957388
O          -1.89556394369726   -1.89362592977818   -0.26321751562798
H          -1.28978092288555   -2.56322820039164    0.06568500711327
H          -1.68689321283376   -1.10465205157434    0.26306518884390
O          -1.07789880095981   -0.72249940159038   -2.56913829365604
H          -0.16911999002248   -0.81613763496314   -2.23572387159768
H          -1.59889288120261   -1.26636192536246   -1.94505431272601
O           1.47471912428588    2.03518190141548   -1.22533161422773
H           1.45929106466971    1.05739500456249   -1.13794028939207
H           1.85229124000238    2.34617761668470   -0.39955186406820
O           1.26768817344861   -0.74048982152713    3.63917210158430
H           0.85300692464444   -1.30366596346290    2.95242599672910
H           2.00178131375156   -1.24626754296720    3.99534737365709
H           1.58780504451889    0.26167933118085    2.28300554245874
N          -1.15547806759378    1.60511569640426   -1.37582854502548
H          -1.11614595059400    1.16971554028354   -0.40346044013349
H          -0.21121440972915    2.03423884553369   -1.50406443249188
H          -1.23849522865907    0.75866270594175   -2.02818783945853
H          -1.91404424977161    2.26886844827473   -1.48234919894664
