    23
        -45.37693840  Gyration_radius:  2.30875264717 Dipole_moment: 2.687
 S          -0.94719226812912    0.76741877599801   -0.38524352258481
O          -1.97625561674495    1.68489983696772   -1.11918545925362
O          -1.25573783322062    0.85561637308392    1.03331321004882
O          -1.12249683179215   -0.59610036351857   -0.88054260005421
O           0.39109028254452    1.26873121790857   -0.69709112234811
O           1.47282851519533    0.90149490212507    1.73327147256333
H           1.22278257686328    1.10151904159652    0.81099451919928
H           0.72826326635763    1.22118379548065    2.24959561081758
O           1.46391717841807   -1.77176651157441    1.61558925047524
H           1.63766379979869   -0.82403368738940    1.81746367822815
H           1.62416899541657   -1.83675617889024    0.64603962339132
O           1.42335436816770   -1.41741591640043   -1.02957308362354
H           0.47603893513584   -1.19816942536942   -1.12475490505161
H           1.88168874117302   -0.59030518842285   -1.19874766173030
O          -0.27413094254625    2.07059196254958   -3.11232565717506
H          -0.00852303888758    2.97783346932231   -3.27867615792167
H           0.23487371913957    1.76865825863964   -2.33343109600185
H          -1.60232363123375    1.84074373455538   -2.01112694698428
N          -1.10009816358072   -1.68440465676738    1.48612574801531
H          -1.28356232601739   -0.65729408816592    1.63444927864758
H          -1.69770792751361   -2.29397319426519    2.03295722567043
H          -1.26595623573658   -1.74818799989992    0.46346390248480
H          -0.02268556279972   -1.84028415757140    1.64743468318737
