    23
        -45.37229521  Gyration_radius:  2.45977034265 Dipole_moment: 5.534
 S           1.15304876883172   -0.29240618144451   -0.08643999107314
O           2.50331088470941    0.31662457283292   -0.62238306966812
O           1.40342900170512   -1.66003932728996    0.31203721469037
O           0.76505218490652    0.59027253190465    1.00897060225548
O           0.19266894637457   -0.18585557154168   -1.19147397500228
O          -1.27598170989234   -2.15587798166963   -0.01160583073153
H          -1.04294195351182   -1.55283818503018   -0.73217310853766
H          -0.41681103754677   -2.44127352511195    0.32557270130458
O          -1.75872186466689   -0.17920564333777    1.75490422611587
H          -0.82409915763565    0.08514726102375    1.70914195125682
H          -1.80661628040558   -0.99590858997389    1.21540005503187
O          -2.98260340894790    1.80065971201731    0.59146781952400
H          -2.63880517851707    0.97714042186625    1.04696549468590
H          -3.34205014988154    2.35265754193641    1.28757654162344
O           3.38284524078150   -2.06391390836530   -1.37751470761699
H           4.15732975505165   -2.40293241922061   -0.92279959445728
H           2.62305704070701   -2.21921749458592   -0.78105874809519
H           2.97111882444321   -0.41436184812870   -1.07888690759889
N          -0.62399164598946    2.14097635890521   -0.50849070583095
H           0.00549769869965    1.89476733925896    0.29549709049302
H          -0.36086056927890    2.99528837666843   -0.98639336378391
H          -0.45491567142004    1.26823541929983   -1.09134225903074
H          -1.62895971851172    2.14206114996391   -0.15697145554789
