    23
        -45.37229515  Gyration_radius:  2.45949852082 Dipole_moment: 5.539
 S          -0.65177553071426   -0.74474679489923    0.66527832758940
O          -0.51759174731277   -2.15046784155415    1.36346361813467
O          -0.54830501953236   -1.03567447006575   -0.76104704531545
O          -1.91487774414816   -0.16354244777397    1.06345048152150
O           0.50483831541053    0.04174774488437    1.11055469051413
O           2.16130258120605    1.28013189795479   -2.48487086267787
H           1.18660894126317    1.46079258968178   -2.33889532339020
H           2.27030795427904    1.18964129812077   -3.43273201202370
O          -0.87430904699799    2.30234429823326    0.46200225785074
H          -1.64318525983401    1.75465386880441    0.66819114731090
H          -0.13979968003807    1.81340413882863    0.86025109960717
O          -0.39797245092679    1.39088823912860   -2.02850851998893
H          -0.59991904138674    1.95238062531742   -1.25111650731041
H          -0.60556924331388    0.48784791002014   -1.73367231722731
O          -2.03841227187938   -1.38764563160757    3.39234393456822
H          -2.87862284189751   -1.83996173167706    3.49732653517195
H          -0.93618681506668   -2.05879186241140    2.24545905227814
H          -2.16671277672501   -0.72983684501779    2.67963658118958
N           2.00963324212024   -0.73348152267361   -0.80854511555869
H           2.24202179115097    0.04644708669029   -1.49517206382412
H           2.75095982293880   -1.41703629207510   -0.70529655394110
H           1.70203570302441   -0.30928706538292    0.11623321673090
H           1.08553110838185   -1.14980719252535   -1.08433463120666
