    23
        -45.37343341  Gyration_radius:  2.37653307452 Dipole_moment: 4.039
 S           0.08553508268228    0.91339534279304    0.53470738341549
O          -0.38107254835697    2.26135910698082    0.71037219995485
O           1.28848639050188    0.82373978185891   -0.31927816295580
O           0.27692201220667    0.14505019751942    1.74993316876671
O          -1.03156181999860    0.11149695399065   -0.25879102583480
O          -0.94826652052067   -2.12663930314125    2.28928064583460
H          -0.52726711131203   -1.24471953144106    2.17007517498860
H          -1.80741896801871   -1.95504639662019    2.67700634112865
O           0.55463716539406    3.14540828914143   -1.59163150524632
H           1.26315865891665    2.49135557577057   -1.58821487803529
H           0.22102371454693    3.11326126470063   -0.67216129768177
O          -0.46574983389731   -2.59099052620219   -0.28727907984490
H          -0.76604359274630   -2.69032637407534    0.64286712153658
H          -0.85565956961122   -1.74713562216971   -0.56654890643255
O          -1.56728589724528    1.71635454801836   -2.20541544206998
H          -1.27778482029550    0.68613777446993   -1.04248806100919
H          -2.30575732946399    2.26956548395749   -1.94107143465655
H          -0.76410140431627    2.29987172040907   -2.15478308899781
N           1.83973038626348   -1.55385737321421    0.36742923921563
H           2.72352579693519   -1.97929386224284    0.10739716002631
H           1.71766369064710   -0.53440128502720   -0.01810829453587
H           0.98396174604035   -2.10765533573197    0.01819730404089
H           1.74332474164474   -1.44693042973432    1.37850540838427
