    23
        -45.37136246  Gyration_radius:  2.46184429971 Dipole_moment: 7.528
 S           0.30041240104127    0.74691770970826    0.61236580730527
O          -0.97815800654349    0.52639187153827    1.24728418494973
O           0.19792021768396    0.66901306325027   -0.86035573183470
O           0.79056580810804    2.18148244410488    0.94836240936341
O           1.34715190889767   -0.17093688758621    1.07322968798208
O           0.06217192590566   -3.45994310618895   -0.56275603299749
H           0.32200002544261   -4.33985531706120   -0.28487299842286
H          -0.26310352119144   -3.00076933039506    0.25696034219988
O          -0.43908197099251   -2.09532479349520    1.62992297123279
H           0.36759617013060   -1.55419565229688    1.68426746175944
H          -1.12843954038696   -1.41757095284997    1.58650855086678
O          -1.48913781013173    2.59046277126426   -1.62529236238488
H          -0.92911303633514    1.81685886278429   -1.40629896518918
H          -0.95452545670434    3.15766462177959   -2.18363149549871
O          -1.58830482051950    3.14585168524425    1.01262332698772
H          -0.04616427694238    2.73138892119350    1.03404508509871
H          -1.76031524114528    3.13183598968286    0.04876076028503
H          -1.82072877825283    2.25535580848791    1.31824388229727
N           1.63653885800093   -1.41559107156865   -1.14447467070237
H           1.07923299387697   -2.30990344100137   -1.06752630361769
H           2.43532897650466   -1.48849351145430   -1.76423403004289
H           0.98416052139345   -0.61142198582294   -1.38476017831762
H           1.87399265216004   -1.08921768931851   -0.16837170131933
