    23
        -45.37703259  Gyration_radius:  2.31048926278 Dipole_moment: 2.509
 S          -1.26503342271059    0.09842884590928    0.16972311489804
O          -1.31445847520681   -0.67565589288802   -1.05597918137177
O          -0.65555141895335   -0.67613213817435    1.25282830384211
O          -0.58161116205767    1.38076329966301   -0.00386297425556
O          -2.74205079554694    0.40573452912009    0.57303936043871
O           1.79463345788240    0.70462096524013    1.04325468844238
H           0.99671431606591    1.08483267392486    0.62808815879948
H           1.45460485827623    0.22027899682336    1.80051030912019
O           2.45511454667799   -0.96609858178036   -0.93371650670548
H           2.45096809199575   -0.33849219785490   -0.17506233272468
H           1.99609450894858   -0.46983701641961   -1.65070553898653
O           0.72033238394080    0.43403827825518   -2.39896350747158
H          -0.10063054994240    0.02047675339605   -2.06948113508038
H           0.70315415815665    1.32105688453562   -2.02929964873609
O          -1.96339282070283    2.55854570234220    1.90562765608254
H          -2.32802206126176    3.40443934057591    1.63576717659736
H          -2.68840631692811    1.12764384347996    1.23289026832521
H          -1.26197616842682    2.33763778919439    1.26093489217572
N           0.47539592259270   -2.44638605524006   -0.23411089069498
H          -0.22133551328086   -2.30576340124263   -0.97490511484675
H           0.60480975308242   -3.42321545739278    0.00541757161745
H           1.40194964713166   -1.93569164665338   -0.54342454200698
H           0.06869706026856   -1.86122553480792    0.56142988254242
