    23
        -45.37703253  Gyration_radius:  2.31042471067 Dipole_moment: 2.511
 S           0.82039343650442   -0.64623172997196   -0.74113648415289
O           0.99579801601053   -1.01022008452689    0.66659985449864
O           1.64911946954478   -1.65110406556093   -1.60252607302454
O          -0.58080301316365   -0.77547604233903   -1.14302510005030
O           1.35461022825153    0.67641801731311   -1.00406798769987
O          -1.06462384585559    2.07672685409321    1.54510110211863
H          -1.13005809488219    2.30382686824303    0.58841223443262
H          -1.47714333168456    1.18459560017028    1.60272318825469
O          -0.91794424909526    2.09007170767721   -1.11845024676400
H          -1.52303996658177    1.41088966965666   -1.42870830168501
H          -0.03449752111683    1.68382263689260   -1.20796136041938
O          -1.71009932466208   -0.50142571030894    1.27546117077873
H          -1.09230981219905   -1.05980271717228    1.75532503057988
H          -1.44356078128375   -0.60294465264136    0.34149474280559
O          -0.37481527595074   -3.35980895201536   -1.61252367083911
H          -0.73449400254879   -2.47320018784680   -1.40965050397070
H          -0.73676179033815   -3.61476997497869   -2.46417443231682
H           1.12445437389055   -2.47817733718035   -1.61660253398388
N           1.40568253350017    1.37155046369290    1.55159369724811
H           0.38035131699944    1.76104411095458    1.66161318994087
H           1.30613937536524    0.31831395300424    1.40454157750364
H           1.76057360386230    1.67818684153337    0.63844814281364
H           2.02302864543166    1.61771472131376    2.31751275392839
