    23
        -45.38117600  Gyration_radius:  2.29816086542 Dipole_moment: 2.262
 S           0.62429040357879    1.10841281111831    0.78572137084203
O          -0.19349229638347    1.19626420262664   -0.42293723878791
O           2.01556773465487    0.85872385100257    0.46677011590781
O           0.54812625696482    2.48891483279948    1.51130153322292
O           0.07362948413978    0.10104390961246    1.69524162381427
O          -1.89935335362311   -0.76373153611264   -0.88638775816721
H          -1.33250601880047    0.01380824174226   -0.67452261092612
H          -2.73637473242003   -0.60044776235002   -0.44942310747758
O           0.25726252450288    0.04010755445446   -2.79418283651013
H           0.14133688359477    0.69742709560267   -2.07803823749622
H          -0.58446076229465   -0.42657182335891   -2.82769301614291
O          -0.00168550914820   -2.21768792614330    0.39152836283731
H          -0.79542284762015   -1.97268603844202   -0.12346472355477
H           0.06462336772205   -1.50131942780976    1.05733878593579
O          -1.83959926327502    1.71697869197280    2.41323417839995
H          -0.37718265706835    2.52752452704173    1.82021198896511
H          -1.28179191564787    0.93317163082776    2.21970046569619
H          -1.95153610303208    1.74196688713737    3.36610715196835
N           1.88373672014308   -1.21239008820114   -1.11305523837728
H           1.36221013556790   -0.82589707728627   -1.94512227966358
H           1.19562496357308   -1.79994491270411   -0.53951778053996
H           2.71766923900688   -1.72491176140478   -1.37698409538537
H           2.10932773587817   -0.37875588213338   -0.49582665455366
