    23
        -45.37997265  Gyration_radius:  2.33328213411 Dipole_moment: 3.116
 S           0.39892512085726    0.74072120864188   -0.43510799785894
O          -0.59860333600541    0.96438517293136    0.59603402775556
O           1.60533227335880    1.51768905076888   -0.27901026114845
O           0.68307790481559   -0.69532636207284   -0.58809599873381
O          -0.30968075595264    1.17730913003127   -1.77844199194368
O          -0.56327675032077   -0.69993797889532    2.73546206199208
H          -0.75845489180520    0.12624985442378    2.26113716433773
H           0.41164408025113   -0.75940310323702    2.68266187266773
O          -2.74131851453646   -0.06349380367819   -0.54773477170880
H          -2.62572726128185    0.14182775454591   -1.47809614753771
H          -2.07286702569001    0.48864554831062   -0.08705490611146
O           1.96419890809920   -0.49359043173182    1.77307596278455
H           1.68773451472774   -0.72624496991576    0.87175411564827
H           2.27519934378265    0.41256969859454    1.69757145204640
O           2.02332896951197    1.78363203385334   -2.85104913286873
H           2.18594071205374    2.70347234397236   -3.07251351542418
H           2.16648819327475    1.70385380496247   -1.88465119816011
H           0.42249237960403    1.35260087574309   -2.40715358694703
N          -1.25045156002127   -1.98123522832853    0.55958319855350
H          -1.34809561430837   -2.98863054435231    0.50530182757047
H          -2.06643988264519   -1.46596836419717    0.15869718797152
H          -1.07674163696230   -1.62548563016733    1.55568773019353
H          -0.41270518079633   -1.61364008019903    0.01194289691680
