    23
        -45.37997256  Gyration_radius:  2.3333774201 Dipole_moment: 3.115
 S           0.68694416699567    0.39815365424382    0.51489919232941
O           1.79641517165425    1.28703672812989    0.26494062164322
O           0.86454522403372   -0.94612017000078   -0.00444912576765
O           0.53776649862753    0.20739245399890    2.07642526433963
O          -0.59168153509992    0.97075784286627    0.06387054421403
O          -1.00395444717718   -2.24722923443256    1.32621217356117
H          -1.01938406011590   -1.81436231702547    2.18261695394189
H          -0.18125628232247   -1.92329566136654    0.89937127968872
O           0.57403101450858    1.16733630019712   -2.35652009590582
H           0.04773547838052    1.31243717062843   -1.55337668848932
H           1.48042509853444    1.31637299490475   -2.07413736699151
O          -0.11025443557761   -1.45386428627576   -2.48209770487957
H           0.47172137508699   -1.59153860377408   -1.71523123846617
H           0.10714570900713   -0.54252386527514   -2.76320793852450
O           1.51283095885571    2.62207858091147    2.50032433116620
H           0.75635788580905    1.08231865985735    2.46219461314363
H           2.35204580074223    2.68882824804891    2.96166318647940
H           1.72655669095075    2.38776168216232    1.57284399748369
N          -2.04961164236245   -0.99427144313844   -0.78632544138822
H          -3.02010217364803   -0.88168452376758   -1.05612563821648
H          -1.41575454118921   -1.29084193942587   -1.59825005238192
H          -1.60579587490815   -0.08912516487158   -0.43910332864501
H          -1.91672609080149   -1.66561710662357    0.00346246163317
