    23
        -45.36331595  Gyration_radius:  2.36072979776 Dipole_moment: 7.223
 S           0.09159707560090    0.64612016985439    0.58016855302319
O           0.86641554146693    1.16923415408886   -0.50261752335009
O           0.81815546118366    0.16375609319640    1.72031703748111
O          -0.92607334984887    1.71788605790143    1.01945806452315
O          -0.79575147347435   -0.51512749986899    0.08188657031711
O           0.58058699442887    0.09904677992038   -3.02673857866543
H           0.93839291615117    0.65766252097069   -2.32064799022457
H           0.78531433017989   -0.81810461675359   -2.74081929292264
O           2.74469111750495   -0.94279597115736    0.12284222157793
H           2.98647831873088   -0.13762695667497   -0.34173616732571
H           2.17178790437735   -0.65836965805800    0.85082545601233
O           0.99902175318867   -2.14555492581026   -1.59869104895591
H           1.75025881346684   -1.88001951531237   -1.03358233012238
H           0.22668491011353   -2.12444042807250   -1.02686780815326
O          -1.77813240481592    0.39591876978983   -2.03722091590372
H          -1.86163265916517    1.34447701868625   -1.91355151721875
H          -0.94783304663634    0.25883906123976   -2.59739789444873
H          -1.27772073009040   -0.19884076334592   -0.78572585963493
N          -1.54250651547179    0.56331300967952    3.21188543336029
H          -1.62282315055720    1.05850140477414    4.09016324935851
H          -0.63645324486762    0.10426161242563    3.16580233172739
H          -2.27011612628484   -0.13738530953103    3.16154431175395
H          -1.30034242500698    1.37924900186923    1.92070368776117
