    23
        -45.37997233  Gyration_radius:  2.33370447425 Dipole_moment: 3.111
 S          -0.04037019256557    0.93335451012952    0.14928942067858
O          -0.74785791008742    1.75754955948751   -0.99827367301131
O          -1.00108002999624   -0.11388124977466    0.53224324701620
O           1.13178513498427    0.35462823479744   -0.48288147459815
O           0.25103139990409    1.82755771116575    1.24429874916925
O           0.75700546254535   -0.74350438140830    2.47354181303499
H           1.11770826706197    0.13181420718140    2.63832988090885
H          -0.04340113180708   -0.57593515249038    1.94978668157554
O           1.96800091057023   -2.05614594250662    0.43218518915936
H           1.68539033185538   -1.81929279941297    1.33817877046797
H           2.06891997009050   -1.19059719693856    0.00054091572862
O           0.09943796482406   -0.52408587035432   -2.74479030913796
H          -0.57243736345170    0.12688718565584   -2.95885560683709
H           0.63085532788279   -0.10717338224876   -2.03220538838101
O          -1.77885736316360    3.41501419278594    0.77670065695077
H          -1.31603210048341    2.40760666257119   -0.53269228334586
H          -1.06843088886059    2.91642799367044    1.23225833339212
H          -1.49124900521490    4.33052126921995    0.75027062816524
N          -0.34975472285146   -2.25860321352822   -0.76614252281885
H          -0.77548215153195   -1.46336256696409   -0.19773958309709
H           0.61658271008741   -2.39626708042325   -0.32347446894351
H          -0.91701019176890   -3.09856514884634   -0.75900386104824
H          -0.22475439802777   -1.85394752179205   -1.72156510505634
