    23
        -45.37189607  Gyration_radius:  2.4949039935 Dipole_moment: 3.188
 S          -0.22193394932012    0.58681541807991    1.02108785429531
O           0.26612642778347    1.92356098770409    0.69358992351385
O           0.85082631775593   -0.36722638580679    1.23608154275873
O          -1.02314068460712    0.68453939474894    2.36145153310565
O          -1.14017659100123    0.09931008825817   -0.01465077010721
O           1.71799000238036    1.74350587524615   -1.56511381832467
H           1.19525424257564    1.86137150092683   -0.74445620977737
H           2.22921348815771    2.54734885047697   -1.66670616661279
O           0.27118835057864   -3.33508347507521   -1.67515310831337
H          -0.39581175553526   -3.73084247440370   -2.23758182909064
H          -0.15796885169024   -3.19549625414956   -0.79574668370140
O          -0.85357510575023   -2.50220559097070    0.60275411498313
H          -0.16120917826727   -2.28576221418580    1.23741485462720
H          -1.22263710191257   -1.63096967929357    0.36491655993440
O          -1.77561131952260    3.16192947971912    1.81029204761944
H          -1.45300525813584    3.82127172186228    2.42896199554405
H          -1.02344155488572    2.94030035680880    1.22466469077124
H          -1.53944614665674    1.51792069963978    2.31226165552962
N           0.91364681329441   -0.78377725125286   -1.36676586360521
H           0.84951679126723   -1.75354774559681   -1.75321935605521
H           1.44204902014691   -0.08735229086515   -1.90386982360240
H          -0.05119679995554   -0.40921070228288   -1.18071815522262
H           1.28334285330163   -0.80640031958237   -0.38949499827965
