    23
        -45.37189576  Gyration_radius:  2.49498240727 Dipole_moment: 3.196
 S           1.11058816497571   -0.41121287045221   -0.19600842802619
O          -0.08165383779965   -1.09896881713063    0.31297969860736
O           1.14209992820372   -0.44094158516870   -1.65571123811089
O           1.18598122311768    0.93513310459253    0.34125681236997
O           2.36686654065854   -1.18429309052547    0.32548797223292
O          -2.38269525038919    1.44449370481176    2.49699226820659
H          -3.07505027833514    0.95607067038454    2.94418480826532
H          -1.53284095578064    1.00347937935349    2.74250566498672
O          -0.96636661162256    0.96087225370093   -2.56702836778622
H          -0.83519483867726    1.14538024797094   -3.49797236492664
H          -0.18640593296682    0.43827366643755   -2.28559536434879
O          -0.07153403375675    0.11767058946599    2.71119956474024
H          -0.12724066954705   -0.54444013383023    1.99678712520017
H           0.65105625932895    0.68994152330716    2.42939089580253
O           2.33759407743427   -2.78677922069676   -1.78121163758173
H           1.78171508560373   -2.00859489609465   -1.98931587705354
H           3.11560513431301   -2.72223692813271   -2.33986039618468
H           2.46791585616883   -1.96732593913147   -0.25780084354294
N          -1.42797250728795    1.12437994366159    0.04691256087290
H          -1.23934995390474    0.09098574147237    0.09597478199475
H          -1.74067702787713    1.36004023410726   -0.90156554979293
H          -2.03592665066418    1.41246647367350    0.84785590353290
H          -0.45651371119664    1.48560594822820    0.18054202054089
