    23
        -45.37254818  Gyration_radius:  2.44727358418 Dipole_moment: 5.411
 S          -1.16966632873529   -0.26352331251831    0.20948591453764
O          -1.02913267479693    0.66164181387285   -0.90644494139544
O          -1.54608565515304    0.36393314845389    1.45999080992649
O          -2.33203916128885   -1.23757918388560   -0.21030442604303
O           0.03140614185722   -1.09814840072556    0.34013740862553
O           2.01859485539303    0.72158663261613    0.82104650408266
H           1.38754976018272   -0.01845371221625    0.82857383753135
H           1.46513441971867    1.52028985218425    0.94706195294287
O           3.06450376409622    0.59195003020356   -1.55685396321999
H           2.73675517588014    0.75963476683640   -0.62491187071879
H           3.92162457436351    0.17443754989474   -1.45924457531239
O           0.00388977407451    2.51404044104044    0.90596302289018
H          -0.59067893236461    1.91758010889046    1.38849394166026
H          -0.29530258111162    2.44317219996529   -0.00720695218866
O          -2.92760964959968   -1.71022309161078    2.32541745752137
H          -3.79138641345946   -1.42694970960976    2.63425775680558
H          -2.64801936758595   -1.64926295520899    0.62186041550607
H          -2.36317504903246   -0.91196876163582    2.31721431902306
N           0.83098246211975   -0.69260240645591   -2.05744385627740
H           0.67957889424787   -1.18330336739875   -1.13032205272402
H           0.06535430891536    0.02489820629248   -1.95749157719577
H           1.77762967223719   -0.20764995494554   -2.02462102652026
H           0.71009200005433   -1.29349989400687   -2.86465811946503
