    23
        -45.37182609  Gyration_radius:  2.39776182538 Dipole_moment: 5.926
 S           0.74577257182017    0.45985151738814    0.28795312746792
O           0.94783382040258    1.44131844944502    1.32690005812857
O           0.13485477172085    1.08685820743765   -0.91758084877047
O           1.90337912898368   -0.32496110175370   -0.05630333478211
O          -0.37639669341549   -0.49457571810391    0.83081993313504
O          -1.00038891575930    2.98360432287508    2.02530898449777
H          -0.21047395192102    2.38876084994461    1.89994744441060
H          -0.66888117546729    3.87506912076977    1.90184996786854
O           0.72847419155918   -0.91347980536737   -2.59082207500782
H           0.51880962861960   -0.08638679317631   -2.11789524987541
H           1.65316765460187   -1.08213019694651   -2.38822980629346
O           2.04238808069774   -2.96791364694237    0.22541585276515
H           2.12588779147125   -1.99699163776869    0.11915921650793
H           2.26612457142367   -3.15388090355417    1.13829273145504
O          -0.41241362954415   -2.46473445291003   -0.74676703561249
H           0.38411464716165   -2.93489296878221   -0.42653982469331
H          -0.42402697850067   -1.32266771907434    0.21896132433135
H          -0.11780272332764   -2.02133119331871   -1.57664287075951
N          -2.09844356942038    1.51572000812875    0.15918396836760
H          -1.16740668487757    1.39761487068494   -0.43660307978813
H          -2.90475312932794    1.78601145212574   -0.39444721677574
H          -2.22513825889460    0.60614803531068    0.60594892644138
H          -1.84468116799812    2.22298930359814    0.91208978701899
