    23
        -45.37189512  Gyration_radius:  2.49438634439 Dipole_moment: 3.198
 S          -1.17000198074398   -0.06497030379151    0.26009593882034
O          -2.65093624219524   -0.13022525663877   -0.24042515533321
O          -0.76743223659968    1.32884888680411    0.21818205429574
O          -1.12874279614111   -0.62658197449148    1.60741814142189
O          -0.35112813586541   -0.86196563854787   -0.66098943503192
O          -0.04926387918345    1.09625342825861   -2.48024141283811
H          -0.48532124217941    1.72048164624396   -1.88905606640568
H          -0.20246554084180    0.23406450044402   -2.05051079112333
O           2.59929790870804    1.40806426981039   -2.29291727010206
H           3.02951839537090    0.92345643022628   -2.99856445986023
H           1.63310938719229    1.39718729171952   -2.50117545186945
O           1.40173561022633   -0.44474568328912    2.50541089688991
H           0.46740735335598   -0.53418905155491    2.22335274987892
H           1.40664630357253   -0.60980379259793    3.44913496689553
O          -3.10213211445680   -2.32024951797770    1.17628621376445
H          -3.00295995769035   -0.99585684197861    0.06025072166781
H          -2.28616939143370   -1.90383881800198    1.52076175473048
H          -3.76822983878184   -2.21944765968599    1.86018999995470
N           1.74120073068956    0.52815341057071    0.05359786731066
H           1.17350792618655   -0.28701305199768   -0.29309911501976
H           2.36374626272523    0.87758011680237   -0.71099819404192
H           0.97230529759034    1.21124598726350    0.23614887039136
H           2.17630819052516    0.27355163242153    0.94714717559776
