    23
        -45.37254776  Gyration_radius:  2.44762261399 Dipole_moment: 5.407
 S          -0.75252139710254    0.61109504797640    0.73477368023148
O          -1.96975457264346    0.43232708014918    1.71569882264991
O          -1.31774934985088    0.46751674127093   -0.59990871516686
O          -0.15954085321952    1.90724076974652    0.99457284566811
O           0.16814454025167   -0.49531239868755    1.02483892806343
O           2.10370605837939   -0.22787616158320   -0.89177750101056
H           1.83141432363874    0.63748438373703   -1.26213181330103
H           1.58287805299467   -0.32089503217442   -0.07563930922857
O           0.78425437089389    2.03414271346268   -1.54109381227737
H          -0.05011070501894    1.63879275489361   -1.81721302403176
H           0.62409244310928    2.28274642898627   -0.61688725178898
O           1.30409519682719   -2.23247353977984   -2.34367357812882
H           1.97624457572712   -2.91171530286124   -2.27059690725771
H           1.68790981723011   -1.42185912632003   -1.89709444286437
O          -0.77822498758168    1.91283079057211    3.55879996012613
H          -1.68783142858080    0.83041969514657    2.56649178399111
H          -0.30152757547966    2.07577529821832    2.72084035414592
H          -1.19944353995708    2.74248265041843    3.79550312034050
N          -0.79066319556013   -2.04458740134676   -0.77328783939367
H          -1.24235620519254   -1.12312856399276   -1.01392775730819
H          -0.02598224704198   -2.26051812757003   -1.48124001915332
H          -0.32732465211355   -1.73762143211346    0.12902391980369
H          -1.45970865970792   -2.79686725815511   -0.65607143411405
