    23
        -45.37326489  Gyration_radius:  2.28484327942 Dipole_moment: 5.850
 S          -0.93437230262013    0.57936786424313   -0.92818715000999
O          -0.53276428313743    1.82044917613831   -1.53188379658355
O          -1.13337414977715    0.67737177191348    0.51592293532193
O          -2.06722043804924   -0.07175245050780   -1.58863308802483
O           0.23008159673535   -0.48003829757612   -1.12954777376922
O          -0.62840544175070   -1.67893612153689    1.49292090211113
H           0.33618997383238   -1.63382341786148    1.51001137938120
H          -0.91038709459339   -0.74789543716049    1.31425614362576
O           1.76527934368941    2.71609430271845   -0.62482038201488
H           1.83316655906177    3.63526076207456   -0.88770066779016
H           0.93322287745383    2.38471039613518   -1.03524591863552
O           0.97838923961262    1.76009638063696    1.76984983505104
H           1.35244497401398    2.29282374702649    1.04015107097014
H           0.07180958861253    1.54475413772498    1.48120110288889
O           1.89290506553267   -0.48463168083205    0.88586899744891
H           1.60312069288533    0.35793753969347    1.35923003742225
H           0.89724757475948   -0.42044764766953   -0.39429564242005
H           2.78340302672849   -0.31105570938350    0.57560805848293
N          -1.70471710268521   -2.42809187191332   -0.76801117656803
H          -1.03560280868285   -2.85988677369291   -1.39829088687004
H          -1.93876169416686   -1.40844436903496   -1.16502060777682
H          -2.54483827723474   -2.99148743732029   -0.68283241608784
H          -1.24681691022898   -2.25237485381697    0.18944903384639
