    23
        -45.37998794  Gyration_radius:  2.3384098382 Dipole_moment: 1.805
 S          -0.06907762393029   -0.91530259929020    0.30783463731097
O           0.69139051787475    0.19390315587833    0.90220305031762
O           0.82782385678882   -2.19219574200796    0.44914646150230
O          -1.30804685348267   -1.14492110655496    1.04343796571060
O          -0.28918267037010   -0.70521022731219   -1.10377109294782
O           2.71802811434140    0.36014150784167   -0.84014879086714
H           2.93771472416215   -0.54698295621115   -1.05959477846130
H           2.07551006612048    0.30423754618956   -0.10596209085274
O           0.76873108990045    1.37386046924283   -2.41634886015606
H           1.66563594886706    1.21024229542783   -2.06216784294173
H           0.31563758545996    0.52567846132172   -2.24504923483903
O          -2.62166325964733    0.72943752935926   -0.31557051181552
H          -2.28113767800544    0.03750757482433    0.29078121403659
H          -2.60259141721174    0.31309417913583   -1.18211718029491
O          -0.12206177662530   -2.60506517202671    2.87352670200444
H           0.72562459137783   -2.46826244524301    1.38557110561762
H          -0.74025275510302   -1.99122220610567    2.42654655586452
H          -0.60784502308368   -3.41984272362979    3.02123202876734
N          -0.42432105343917    2.23618800381792   -0.26651900520637
H           0.09226251023020    1.56489430340209    0.36742827753650
H           0.04385058386854    2.09827034427939   -1.22429938079639
H          -1.40260999976093    1.84806179201304   -0.31192280596962
H          -0.39341947832884    3.19348803564364    0.06576357647813
