    23
        -45.37883953  Gyration_radius:  2.32576268085 Dipole_moment: 4.370
 S           0.26221367631321   -0.58267218005736    0.70779379779828
O          -0.13403116920610   -0.44358070646661    2.09696593246910
O           1.48860993888984   -1.57183882085141    0.64394061633723
O          -0.76369388575296   -1.20671592177864   -0.12085795622255
O           0.72128778393267    0.67387774624876    0.12846852357770
O          -2.38278784734159    0.73035231884515    1.13975583759973
H          -1.61220771837650    0.44899399947767    1.66134123223663
H          -2.72580353725778   -0.08414035775735    0.76366674743123
O          -1.24876364276907    2.24487830266429   -0.80699880195605
H          -1.86734689710338    1.92169293818044   -0.12200163941307
H          -0.37702572576286    2.03464229262644   -0.42625049129051
O           1.71242276804862   -0.07719311521698   -2.18383686179217
H           1.51443803107336    0.30433603450840   -1.29861127379153
H           2.08620821990005   -0.94244113021439   -2.00516052443262
O           2.28347056415815   -0.82038305816355    3.04538761971360
H           2.01754544978968   -1.37875214878361    1.44730653861620
H           1.36223600507208   -0.50361664557396    2.94773827511514
H           2.27277404133985   -1.47006753869156    3.75207067770059
N          -0.94516974987849    0.14167222889158   -2.32065704333167
H           0.05825533293512    0.11944131907197   -2.60788238720556
H          -1.57837102512060   -0.11179043996620   -3.07023710307518
H          -0.98552782291893   -0.52541330841210   -1.48858130399065
H          -1.15873280997718    1.09871819142951   -1.88336043209651
