    23
        -45.37647167  Gyration_radius:  2.33789027117 Dipole_moment: 3.435
 S           0.09495799875807   -0.99167138983651   -0.22862598863652
O          -0.95868367325578   -1.26822301575652   -1.20258980181147
O           1.15511658483372   -2.13952993145961   -0.32842261638559
O           0.76250026074023    0.26884138594292   -0.51963974931602
O          -0.39405549720188   -1.02137926079353    1.14448509486076
O           2.11600998733332    0.07415495880859    1.86528699580693
H           1.58331364719989   -0.60092512480862    2.29341392943872
H           1.88057110441867    0.00475262601324    0.92794911006550
O          -1.98380897294234    1.16659617057308   -1.18377023092604
H          -1.73758396315707    0.21726026949951   -1.25758826310906
H          -1.30476377413704    1.63326381943923   -1.67790049404602
O           0.99965919919985    2.45850250950571    1.10368805782541
H           1.57462937342569    1.94126513153107    1.69356795391513
H           1.05366236582037    1.96329447763164    0.26804634476887
O           0.58784716011731   -2.57939991204329   -2.87261224358191
H          -0.14809371603840   -2.05469325608731   -2.49656143417499
H           1.20946628502848   -2.38452938909927   -1.27688142912328
H           0.22885202541282   -3.44638675979173   -3.07476742157016
N          -1.37171715810951    1.37265395994975    1.39568571869324
H          -2.03696171057418    1.61999321169736    2.11966669361427
H          -1.78113548960645    1.44038641698507    0.42625730216145
H          -0.48371702029378    1.96320398192160    1.41562314257936
H          -1.04606502697380    0.36256913017585    1.46568931895325
