    23
        -45.37279551  Gyration_radius:  2.30508743794 Dipole_moment: 4.565
 S           1.08691068201137   -0.03255770940522   -0.39797451700775
O          -0.05556827848714   -0.90136718505074    0.28712374594924
O           0.83664154690762    1.33944373043417    0.05064462132717
O           2.35355613752652   -0.55921750495599    0.01780357700254
O           0.80037182556660   -0.16515930233105   -1.82710095785796
O          -1.73406795095943    1.55594693796860    0.40648576966052
H          -0.74859975124406    1.62300521727494    0.33518691117314
H          -1.89385204197764    0.97503741254091    1.15367957988065
O          -1.17732182442358   -2.12566918282682   -1.98406965121957
H          -0.30422019275819   -1.71344927872313   -2.09810054620254
H          -1.17563211330688   -2.45120088982045   -1.07972748160182
O           1.43979354606746    1.30598204592238    2.62847479331739
H           2.30026068490238    1.70764222668169    2.76019784399880
H           1.23834271127673    1.41222200468779    1.67369738300252
O           1.36808294943859   -1.36527788572998    2.35767730889474
H           2.09557113976483   -1.34805959061624    1.71356700172889
H           1.36167024871693   -0.46298402486377    2.74026698350646
H           0.35725314549719   -1.17549764626885    1.15993119899926
N          -1.66887642260143    0.49726473055396   -1.99850804238822
H          -1.94473625314986   -0.50521864112120   -2.04287705846557
H          -2.04511959153132    1.03884578610895   -2.76913403496599
H          -1.89520414932218    0.92682554655649   -1.05496003204155
H          -0.59525605794333    0.42344321301923   -2.03228437668956
