    23
        -45.36295255  Gyration_radius:  2.41461939719 Dipole_moment: 5.226
 S          -1.02559913725800   -0.62977886539265   -0.25171922761503
O          -2.38479760255846   -0.65620175474625   -0.95287821723265
O          -0.30502288220310    0.55283655705348   -0.68547293991066
O          -1.18153833307403   -0.74828702577104    1.16394060591482
O          -0.31644310948115   -1.87172201430826   -0.81832149856914
O           1.75592047256770    1.68290926270640    2.59199463586342
H           2.16571400581727    2.54571116593295    2.66806150456148
H           0.81139061401809    1.84184377911058    2.37070388560925
O          -0.75712896206116    1.92751492518502    1.65725855772998
H          -1.14955145645636    1.09663492100543    1.95442601949331
H          -0.57176145871453    1.76896283638653    0.72028955505118
O           2.19321617475025    0.11206655327323    0.44150171698189
H           2.17561927777637    0.65488008074860    1.25889171803475
H           1.41937490227728    0.38681503082032   -0.07235742366238
O           1.30803939324528   -2.25999540481446    1.04637905127080
H           0.72461912058530   -2.05401639455595    1.78439502062170
H           0.38863498666038   -2.17368510197838   -0.11350880571548
H           1.83108336795363   -1.42604449691230    0.86922739916262
N          -1.40668531174533   -0.13550402523750   -3.24953547855955
H          -0.67657386905419    0.40516581559695   -2.79663904092917
H          -1.84040609586031    0.41863309729576   -3.97602037049242
H          -0.99306635307380   -0.96196958551346   -3.66030541442614
H          -2.16503773412506   -0.47676936587126   -1.95031123318308
