    23
        -45.36497530  Gyration_radius:  2.27055466258 Dipole_moment: 2.749
 S           0.50321173960854    0.14609021654163   -0.69476725886035
O           0.45612408414820   -1.31811585465506   -0.77604213704817
O           1.90371303107109    0.46401660937856   -0.06009422519379
O           0.37413933088551    0.79995788509404   -1.96745727839149
O          -0.49328017238563    0.64099676981981    0.26765221657625
O          -1.11539479559045   -1.09474219903487    2.11603030837311
H          -0.19657960306462   -1.40820794198134    2.27649723609214
H          -0.97472239415768   -0.25656281034385    1.61452806358494
O           1.49244123945776   -1.60339463066087    1.79383671718167
H           1.74430101236402   -0.81453036307152    1.29261592949329
H           1.53298255619712   -2.31852400289593    1.15244595988696
O          -2.51782572701577   -0.10268229658656   -1.23100638665912
H          -2.17692246341830   -0.00488237883877   -2.12364320311977
H          -1.88487458936263    0.38752047590357   -0.66249079591374
O          -1.72061251907483   -2.22077563911626   -0.00422078640139
H          -2.28334076707534   -1.53049992915664   -0.48369389982326
H          -0.77280048774442   -1.99875488589410   -0.39233114482070
H          -1.58367430791401   -1.83843920648954    1.01248013165329
N           1.56855227120016    2.96218829308347   -0.61859882726582
H           2.21519844666983    3.65416048348419   -0.97444739296926
H           1.03387816010806    2.57419908373812   -1.39348383585303
H           1.97195073469591    1.46534178075629   -0.15888984092953
H           0.92353521047552    3.41564055104519    0.01508045029795
