    23
        -45.37949841  Gyration_radius:  2.29704613093 Dipole_moment: 4.607
 S           1.37843862392724   -0.06417840643199   -0.49574363302488
O           1.01762962440806    0.02790363982886    0.91351443501395
O           2.43785685327185   -1.21857384810837   -0.62947342002376
O           0.20106645308310   -0.50397810308805   -1.27721922903069
O           1.97530258761682    1.12928746352817   -1.02013996911028
O           0.25274953758694    3.12738153379816   -1.05665994677354
H           0.89916167226667    2.39227600590155   -1.14723892103912
H           0.76440147708761    3.93407990060932   -1.14107709522866
O          -0.84702549200616   -1.69926604779511    1.75077503223386
H          -0.07588193936709   -1.09761989503750    1.69736925736875
H          -0.59409884814056   -2.45952022382962    1.21084360269865
O          -0.63082957705719    2.14102900259640    1.26107367095789
H           0.11387662148306    1.52284541371455    1.38294465414326
H          -0.38055563483033    2.68273846732011    0.48120239699115
O           0.31875873823131   -2.95199376145049   -0.46590343389415
H           1.96038605051772   -2.01632070581934   -0.36433299692249
H           0.14337796514869   -2.07212356589804   -0.88051034712308
H           0.28543910948808   -3.60207992931687   -1.16996373455183
N          -1.89128982497138    0.14630810694073    0.17701631512455
H          -1.75874239304766   -0.63427579709583    0.87631073767217
H          -1.56306027604075    1.05274506467453    0.65751032764988
H          -1.17322760629744   -0.04419713879980   -0.57008870323061
H          -2.83373373236771    0.20753279376332   -0.19020899990568
