    23
        -45.37704148  Gyration_radius:  2.43361868454 Dipole_moment: 5.270
 S          -0.39198383840841    0.70947910434996   -0.31860334052562
O          -0.35998102494580   -0.05033583372494   -1.56303072267233
O          -1.55388105300984    0.04838923944214    0.51589294717394
O           0.83094022130447    0.46379970326333    0.47005882035577
O          -0.67601346011430    2.10702543632735   -0.48297453369086
O          -1.07353095316483    3.59549220953686    1.66613146246613
H          -1.92487928183052    4.01796278858670    1.54093546990940
H          -0.85919844771247    3.16447649095260    0.80952725548656
O          -0.95116966429488   -2.44897042545767   -0.63660152781011
H          -1.59658760614592   -2.27771084061551    0.05432096445361
H          -0.88835000347491   -1.59572741116259   -1.12255364885232
O           1.78414596786415   -1.07937878615591   -2.72791583007053
H           1.02029391532285   -0.53939453308277   -2.42555143536280
H           1.47967225865224   -1.54968996976010   -3.50627666215620
O          -0.64745305728039    1.14637995335013    2.64887418053685
H           0.20762128547411    1.01445687247290    2.21403787189527
H          -0.84539580606959    2.10044144495565    2.52778589976980
H          -1.39537346810934    0.42645644132386    1.42735671311968
N           1.59869931530472   -1.88490549283061   -0.19911337326504
H           0.66597014001739   -2.36802404315037   -0.24102315346251
H           1.37730445747940   -0.88729846322240    0.16295466956827
H           2.28251515747446   -2.36708539753038    0.37296383253006
H           1.91663495568024   -1.74583846789534   -1.18719585945733
