    23
        -45.37054486  Gyration_radius:  2.3599116004 Dipole_moment: 7.487
 S           0.38883329392950   -1.04519673824619    0.30973904062088
O           1.01898087612113   -0.35549010573725   -0.83288365316908
O          -0.82336484380055   -0.32114803822280    0.70136017772884
O           0.08908571446749   -2.42854542537050   -0.04741433744325
O           1.36711000078285   -1.06468955677604    1.48209139294862
O          -0.93318571797895    1.78415571537757    2.33436547428126
H          -1.10567938924434    2.50661568613805    1.72686559217130
H          -1.00394111765023    0.96591700670134    1.80150662430331
O           1.74555133718311    2.11619077622258   -0.29093345259782
H           1.43067057687197    1.21896989954383   -0.54727817978844
H           2.60094208507914    2.22480804667645   -0.70984721720224
O          -2.59072350692245   -0.48081276540454   -1.21588488710745
H          -1.96724696202220   -0.32622874439691   -0.46003699807331
H          -3.34871138898410   -0.92744334028621   -0.83410226831212
O           1.69877949969376    1.31074617090967    2.26604882413073
H           1.54063797201057   -0.11008410392078    1.84905373945293
H           1.82418089789388    1.76208747212112    1.40317127971886
H           0.78709556702648    1.55144432010951    2.54283953932455
N          -0.55852884970961   -1.69639087980498   -2.36412892764359
H           0.16888276895419   -0.96569696386899   -2.18273465772844
H          -0.35230375210240   -2.30695948979960   -1.49324998004125
H          -1.49572324031019   -1.25365759217076   -2.17532497185547
H          -0.48134184140911   -2.15859132831346   -3.26322214354978
