    23
        -45.37283342  Gyration_radius:  2.3285507754 Dipole_moment: 5.578
 S           0.31760824341489    0.21840899439797   -1.07963760995391
O           0.59921594714093   -0.69464318816574    0.17045384396264
O          -1.14790452030982    0.46553574624563   -1.02339267081181
O           1.05920038527204    1.44465387176142   -0.93488650026845
O           0.66941007154143   -0.60074916998403   -2.21384119742297
O          -1.07685394772794    2.49863856241479    0.70263362585746
H          -1.23096763537481    1.83972854231067   -0.00074849093563
H          -0.36543959604327    3.05240496997589    0.36887104403595
O           2.49971175345246    2.01773014132254    1.22589772062576
H           2.02642554405567    1.89133843664018    0.37625054696943
H           3.40209313300185    1.73704883308052    1.07026493883220
O           0.11053569463547   -2.97900391569533   -1.41577564997205
H           0.79863545475507   -3.11824849288498   -0.76005427720164
H           0.37045416986145   -2.12828462389695   -1.86849360144374
O           0.31220464578099    0.79031880626784    2.20186478131521
H           0.49464999320138   -0.13286129256051    1.02127693057938
H           1.17832182620451    1.24087878547438    2.16836706019257
H          -0.31831012756309    1.45882450254940    1.84388130849579
N          -1.97288252626168   -1.82325705075311   -0.35439696722329
H          -1.98531535326311   -1.86851334527245    0.66043503956592
H          -1.70412910380967   -0.79037572495862   -0.66390940045897
H          -1.16732980341369   -2.42106851482594   -0.75178744485890
H          -2.86933424852663   -2.09850487344969   -0.74327303989014
