    23
        -45.36104617  Gyration_radius:  2.46928545344 Dipole_moment: 5.999
 S          -0.45092974048759   -0.94367188493235   -0.14309850437845
O           0.03198384401076   -0.95053200852610    1.20848825690198
O          -0.05018427722915   -2.25631087451533   -0.82139976610308
O          -1.85396997506809   -0.69163841983007   -0.31730725021656
O           0.33625534561192    0.11181022511580   -0.96115892505869
O           2.61753325960116   -0.22935417644873    0.79210823703041
H           1.78324272831248   -0.63811351623801    1.07862456777294
H           2.48526630152615   -0.01218861513143   -0.13471448205299
O          -0.33750739383004    1.66180114029462    2.09844824311614
H          -0.29488247486397    0.69610412248141    2.03877725948142
H           0.59398145832278    1.95833458014051    2.18971934737909
O           2.33234329211338    2.05305311373062    2.21237257173790
H           2.74985651132567    1.93767731037046    3.06724384923327
H           2.56113730393063    1.25739515013759    1.68526797860816
O          -1.12504355572284    2.03793448991635   -0.34235821915365
H          -0.17574442499607    1.00890922633432   -0.81150704324022
H          -1.93847861506072    1.52062069144591   -0.34561116668805
H          -0.85285271147611    2.08886952876343    0.62232288302711
N          -1.73426336372416   -2.14298180999402   -2.73491348139512
H          -0.64274007347497   -2.33658963338291   -1.66932787876339
H          -2.27780224456998   -2.95413567209916   -2.99778922735842
H          -2.29538016857130   -1.53488716400389   -2.14423987050232
H          -1.46182102568332   -1.64210579362069   -3.56994737937365
