    23
        -45.38152957  Gyration_radius:  2.23402805634 Dipole_moment: 5.494
 S           0.83094177240725   -0.87940166294997    0.88547742832315
O           0.60568459893968   -1.21486968361391   -0.54126960472491
O           2.22829746959614   -0.67297004517910    1.15752908848915
O           0.00834219090669    0.28293863903328    1.23299328148088
O           0.32814148851940   -2.09052257136791    1.71373816295696
O          -1.93926545517677   -1.19935680643177   -1.09157142544249
H          -2.16645193683121   -1.95191758755569   -1.63947137132005
H          -0.96442073380719   -1.26323953344308   -0.92082607404462
O           2.38930181463270    1.86475958739357    0.58151789320932
H           1.72435641297619    2.21089941656722    1.18334971229806
H           2.51647374904652    0.92842205027269    0.87005491162163
O          -1.33568612437120    1.51335822543373   -0.70847263581680
H          -0.93549389346877    1.19090006744485    0.12850420188040
H          -1.86770396569767    0.76788782239763   -1.01976643215617
O          -2.14054084219181   -1.27672531209978    1.64446019970648
H          -0.65609739415807   -1.97385921118319    1.78211063207386
H          -1.68930143794584   -0.42828941193640    1.77075109445840
H          -2.34787096855951   -1.31439669784193    0.69326676648991
N           1.09874892220316    1.11740503825544   -1.58753971512867
H           1.46757780133708    1.27302051900494   -2.51899912212318
H           1.03514045689624    0.09002904762265   -1.33297250517514
H           1.70317327885337    1.55420998657348   -0.82787633272072
H           0.10665279589934    1.47171811360373   -1.45498815434060
