    23
        -45.37167375  Gyration_radius:  2.49925051944 Dipole_moment: 3.425
 S           0.16169198159370   -0.86005333740381   -0.78924459488833
O           1.15081998989965    0.13254795168668   -0.37254331837903
O           0.92761189963329   -2.13596311053030   -1.27289181791209
O          -0.65785613062405   -1.26895967120344    0.34395391795520
O          -0.64027463268670   -0.36988329875765   -1.90702904414833
O          -1.93269918447052    1.84925280629463   -1.10098842192133
H          -1.50480396881882    1.03301902644307   -1.43449898803951
H          -2.28236268695888    2.29558663476089   -1.87321160037442
O           0.35224982043813    1.03970192685400    3.59374874071231
H          -0.03722274914934    0.70919608668472    4.40406936640676
H           0.83339914897128    0.27801377659464    3.18734794910248
O           1.33492696328428   -0.98548815438559    2.14957650569390
H           0.56504662024370   -1.35509149013095    1.68243271428102
H           1.85293059100596   -0.58989388797339    1.43701180860266
O           0.99072622892172   -1.26459194709932   -3.77238493165695
H           0.32319385131491   -0.73808240877752   -3.28731106035889
H           1.20133132480437   -1.96256834916659   -2.19947326107656
H           0.50513823387553   -1.81851065059806   -4.38796585037172
N          -0.64987177112312    1.24667590175914    1.14833846153632
H          -1.04285475098466    0.28499625080236    1.06061194880314
H          -1.26548647068692    1.90364907946328    0.65593396021106
H          -0.42098944429373    1.44891645090282    2.14776903501107
H           0.23535512581677    1.12753040378310    0.58674848081106
