    23
        -45.36949058  Gyration_radius:  2.37879960256 Dipole_moment: 6.297
 S           0.00700241947999   -0.86516874805416   -0.46089714465388
O           1.24542519848754   -1.69596914521085   -0.11073922262816
O          -0.52424902114881   -0.30686772819576    0.81715688335671
O           0.40462615764661    0.24148855213638   -1.33833719214224
O          -0.98829003392612   -1.70638542643758   -1.07127119232547
O           0.98969812927344   -0.14213336783868    3.01706818218398
H           0.36998203107781   -0.12700271769235    2.25942408754944
H           0.90675533624687   -1.01213763837960    3.41150160290588
O           2.23866675710243    1.91433571152626   -0.44969559243214
H           2.80322415909811    2.09478968851982   -1.20326962787394
H           1.49588795004625    1.36990010776112   -0.79378785989235
O          -1.90909675267397    0.49668453564574   -2.48769935305783
H          -0.97442771655712    0.54042546504172   -2.16048921103601
H          -1.96114273012468   -0.37301069388337   -2.89687642471333
O           2.87123127139975   -0.17847480969104    1.09038973881038
H           1.95738295703752   -1.10423374404966    0.35312843344722
H           2.77709797528595    0.67402425779930    0.60948250615589
H           2.37851921681916   -0.06173987775894    1.92948182266795
N          -2.86140701455020    0.06309363695770   -0.08829208479072
H          -2.58792964287924    0.31121946597104   -1.10203300611717
H          -3.30818404184856   -0.85002916133641   -0.08723743192769
H          -1.88609689154466   -0.05346548150914    0.41521681295339
H          -3.44467571374128    0.77065710867685    0.34777528356235
