    23
        -45.37599607  Gyration_radius:  2.3890990053 Dipole_moment: 4.450
 S          -0.25089318260131    0.80276804077325   -0.39731494732648
O           0.00775081391251   -0.56852874539897   -0.88258681037318
O          -1.27906824176555    0.62924694875572    0.79420627098873
O           0.93408276482399    1.35381891156326    0.23249713110237
O          -0.86096771853576    1.63467342815705   -1.39988856107911
O           3.37265464770068    0.38501302648454    0.05976925556061
H           2.53315047193711    0.89906707509787    0.11906388396712
H           3.70962306818318    0.53387847816307   -0.82481770569834
O          -2.05857634913158   -0.32816702790271   -2.66668826063256
H          -1.65800531659482    0.53847406365898   -2.44465370449973
H          -1.37420597892777   -0.95413889013398   -2.40325449559437
O           0.56762599619164    0.14044491320181    2.71747122683802
H           1.11104751579892    0.91893958174060    2.55441037182563
H          -0.24190722880556    0.31051317982761    2.20423521213413
O          -3.43510775386802   -0.04987425620235   -0.44470085898510
H          -3.04653309687819   -0.26947968140395   -1.33357413055460
H          -2.14462316305849    0.34437980231503    0.37650374769671
H          -3.95697792379913    0.74453440372402   -0.57825815623399
N           1.62946645823980   -1.45598608853283    0.87677726492402
H           0.92106172254801   -1.19674839277084    0.09518204684964
H           2.51719670585724   -0.97829336543130    0.60510640463958
H           1.26421878927998   -0.97789694018117    1.74456085968159
H           1.73898700949996   -2.45663845549017    0.99595395477423
