    23
        -45.37693832  Gyration_radius:  2.30881465489 Dipole_moment: 2.689
 S          -1.06697620191315   -0.37238510486908    0.59791755714334
O          -1.54627424584522    0.95846319818444    0.26030519544818
O          -0.74013548471587   -1.16497867330407   -0.58723108083478
O           0.07065303766766   -0.30834910079386    1.51295720796087
O          -2.24113090724934   -1.09104986568460    1.33568072810637
O           2.10253611662797   -0.80502198605772   -0.16170966845410
H           1.44505818102792   -0.72728919539198    0.55677499264578
H           1.67548734460260   -1.35663154842588   -0.82217558264310
O          -0.29219461671976    0.88687429362532   -2.26108593698144
H          -0.42972813604805    0.04683078496111   -1.78304761113527
H          -1.03509351924202    1.43219565554513   -1.98903612284173
O           1.96362291958824    1.70020094533764   -1.07271455519599
H           2.26877941021306    0.80476313417283   -0.79899216755006
H           1.22489303731593    1.51405218971023   -1.69606317355603
O          -1.33825371989166   -3.45676547278824    0.55697511368566
H          -2.02368861865362   -2.04593402585413    1.31156948041079
H          -1.93248839294944   -3.98547138819870    0.01971415599389
H          -0.95663105040620   -2.77728305149701   -0.03429685378345
N           0.58424783864334    2.19982382371156    1.03610193360278
H           0.69253897415232    3.05310135544923    1.57269964332000
H          -0.39697982151099    2.03093816672085    0.69156305792269
H           1.24521230622704    2.12761506166920    0.15930898231998
H           0.72654553908427    1.33630079377533    1.59478470441069
