    23
        -45.37693799  Gyration_radius:  2.30830236571 Dipole_moment: 2.682
 S           1.17151430182964   -0.46432607830885    0.21945443268476
O           2.55578070959348   -1.18738388560961    0.23984244571579
O           1.00523411690523    0.13211697556421   -1.10575111374418
O           0.13576751871550   -1.46326488630848    0.47538407521762
O           1.21251769893312    0.53365450011515    1.27615925512187
O          -1.77747867620793   -0.66250358046365   -1.22164788211029
H          -1.12108243068691   -1.11258894872819   -0.65500940487425
H          -1.25691121806470   -0.25362939677780   -1.91780065206123
O          -0.14703474587978    2.42366368090951   -0.30968655288850
H           0.42027106343385    2.59002624639902    0.44779680201689
H           0.26611341605905    1.65561312862989   -0.74847381568637
O          -2.44824417141205    1.29697254685692    0.46237368626600
H          -1.73518794931769    1.90499697299701    0.16084694235111
H          -2.45557720238443    0.58865437510058   -0.22180304335834
O           2.32465218520040   -1.78567143233544   -2.33086621167877
H           2.62476985504034   -1.64969442852625   -0.62098038534042
H           1.72044184356208   -1.04115775728781   -2.13723340579991
H           3.00545255101169   -1.44218883095402   -2.91386890219584
N          -1.12647067420178   -0.01446871004155    2.23196892367034
H          -1.79943638614099    0.57454006910174    1.59060206007840
H          -0.96362452258180   -0.91949727174787    1.74908826672902
H          -0.16811486437352    0.41226985359627    2.14005560232365
H          -1.44335242903052   -0.11613313218566    3.18954885756084
