    23
        -45.37599610  Gyration_radius:  2.38913893965 Dipole_moment: 4.449
 S           0.55587011894138   -0.49585357862262   -0.55737778312643
O          -0.90375709803622   -0.29700444914468   -0.44385809576165
O           0.89593461766315   -1.57528539765173   -1.44541281080460
O           1.22377274714758    0.76411290091815   -0.82378909672574
O           1.03116613169404   -0.88668620784632    0.90143508879383
O           0.06781248246634    2.99745668532497   -1.59278447645417
H           0.62635019568441    2.20587774978779   -1.40851256697355
H          -0.23248340576566    2.90189314019551   -2.49772061444912
O          -1.31183711269607   -2.93946499192342   -1.04945854001597
H          -0.47782909533469   -2.59503793618822   -1.43237879474681
H          -1.81124391462082   -2.13565624826129   -0.86508403047835
O           1.30319504089254    1.64926751739660    1.82007320178409
H           1.29421394448230    0.68373319634377    1.69658219070610
H           1.87092682323181    1.96663794326047    1.10945568116979
O           0.05911117854607   -3.25892324975605    1.17056696602152
H           0.66595163795883   -1.80347910607622    1.07718976489655
H          -0.57084796287269   -3.26242935290086    0.40096212899513
H           0.75066911411724   -3.88461326783125    0.94361728292713
N          -1.04079025361418    2.01777996159976    0.62202931596604
H          -0.81844359110304    2.63642527890391   -0.18925233584400
H          -1.88494541297250    2.29391167836733    1.11060119278481
H          -1.10084672605153    1.01730432877279    0.20339999989730
H          -0.19194946975656    2.00003341531158    1.24971632144454
