    23
        -45.37283282  Gyration_radius:  2.32918922728 Dipole_moment: 5.547
 S          -0.09723897610573   -0.11976864971040   -1.13508818445776
O           0.90415504703934   -0.22425255626462    0.07374114802513
O           0.73083929705072    0.22984133240160   -2.26346280948344
O          -0.82168005478451   -1.35967974659051   -1.24637956871989
O          -1.00152265969075    0.99979404862866   -0.75915471040771
O          -2.66736002790380   -0.41555852673876    0.76968576288089
H          -2.19609587283475    0.18809809745350    0.16447741917939
H          -2.84025251702746   -1.20296896011444    0.24599612138819
O           2.60614532248087    1.63081453283094   -1.20214473573272
H           3.08267035242937    0.95601791328781   -0.71178548085041
H           1.95556507161499    1.11745150204883   -1.75838043719069
O          -0.54922791142841   -3.36310685255944    0.48132005773023
H          -0.69935384551740   -2.69989242733390   -0.22533350761708
H           0.10013322643750   -3.97629197084776    0.13516871263381
O          -0.43150132256761   -1.15314512801029    2.01435187059369
H          -0.42487876110654   -2.09431520880523    1.75334594205383
H           0.40499766517715   -0.59901700422355    0.88681935182910
H          -1.33546072122112   -0.84421959029981    1.76881089313055
N           0.66150780090007    2.62122906856201    0.22629498069604
H          -0.13802376282564    1.97916208687304   -0.20234886938312
H           0.74726722616128    2.41948021108650    1.21824625665545
H           1.54690427150237    2.30607154453769   -0.30371961096701
H           0.46241116222820    3.60425627378458    0.06953939799918
