    23
        -45.36345584  Gyration_radius:  2.3852863074 Dipole_moment: 5.194
 S           1.00089039547909   -0.00782787493454   -0.18054207912588
O           0.99357046062340    0.32469217937728    1.21866778725311
O          -0.15604516490031   -0.72919723639927   -0.64032927693045
O           1.16686574193069    1.26897137887118   -1.02508713498325
O           2.27072257289076   -0.78863946245602   -0.50839440312932
O          -2.29151212417820   -0.79384170881568    1.12247365970327
H          -1.72318209865317   -0.88561604774428    0.34319600429652
H          -1.79499409881613   -1.23144737319988    1.83488894577236
O          -1.39068093942247    1.67019972931749    1.52916469126163
H          -1.93955005855724    0.85364555654364    1.43079888846552
H          -0.49129821850702    1.33551166039644    1.66334072191952
O          -0.25214174823777   -1.47368894167041    2.86678516433979
H           0.30113623401417   -0.90304313964992    2.30698134396824
H          -0.23335422010854   -1.08892418931778    3.74528488507480
O          -0.94674577444994    2.62926693235548   -0.82098080801108
H          -1.25561473439400    2.30047723308783    0.08101066820245
H          -0.74368429925556    3.56113398103440   -0.71051737832631
H           0.30361027792373    1.83358969065121   -1.00540130377304
N           1.43954180603161   -1.61962211085680   -2.76514045581689
H           2.09708865474510   -1.17971542928738   -1.45616927347020
H           1.57182791878379   -2.57459409013061   -3.07036030126666
H           0.49384249782387   -1.50371231964742   -2.40980721472604
H           1.57970693923067   -0.99761841752501   -3.54986309069844
