    23
        -45.37276223  Gyration_radius:  2.3771036836 Dipole_moment: 7.380
 S           0.70626798883356   -0.26665381482854   -0.53635038781708
O           0.73060287533109   -0.66603886028700   -1.94943174831161
O           1.70135776403749   -0.92132522641377    0.27281888026920
O           0.73828937316735    1.19068826448346   -0.40693140957247
O          -0.71954541671862   -0.72149752438160   -0.06731542436856
O           1.30628506232257    1.20379739054123    2.19998794511668
H           2.04989406970674    0.59493975176839    2.22002334347978
H           1.13968070169564    1.36532949140085    1.25181631101235
O          -1.00285811222376    2.53612775083100   -1.77192949361753
H          -0.50317213394923    3.17628453490721   -2.28183721232410
H          -0.34443200020544    2.11294197708971   -1.15807277273923
O           1.15461282127949   -2.47685148845387    2.36029410849737
H           1.07967140837837   -3.37853288337846    2.04579527853291
H           1.47110067748020   -1.94878295429153    1.59753059457257
O          -0.70625100106324   -0.52632149794472    2.44636053406819
H          -0.77573274571761   -0.63781085138887    0.96116536854463
H          -0.17467172949187   -1.31838453105350    2.66140990791473
H          -0.07845148548192    0.22642018820749    2.54840087410972
N          -1.59552014293911    0.08815099195716   -2.51285468176593
H          -2.10673593062615   -0.31727598123254   -1.72948592055951
H          -2.01101632318615   -0.15375996146348   -3.40609925615146
H          -1.51150700579693    1.13358078267771   -2.36097595905466
H          -0.54786871485342   -0.29502555875199   -2.38431885985012
