    23
        -45.37182593  Gyration_radius:  2.39725796161 Dipole_moment: 5.939
 S           0.12713906005088    0.04256515328099   -0.91387541022053
O           0.34368167704596   -1.30007193834764   -1.38821045874486
O          -0.29042115112762    0.99493482365216   -1.91497818618364
O          -1.02467381204579    0.02899297582802    0.15266919286563
O           1.30888362741269    0.55193042117633   -0.16296917551851
O           2.00674915534098   -1.81250170425261    0.87408343668108
H           1.91576294325963   -0.91245773289081    0.50882445758699
H           1.96994618821708   -2.39127040838426    0.10712311979082
O          -1.04508745735373   -3.41040265262254   -0.55096955115542
H          -1.86790800719916   -3.43208970776287   -1.04128947392433
H          -0.50120866158639   -2.70872733233686   -0.96664657047513
O          -0.66467507485222    3.46026720160703   -1.25044928596436
H          -0.08926152384660    3.96404785200209   -1.82919777566305
H          -0.63605646771116    2.52632418687411   -1.59779693750199
O          -0.54153156142850   -1.94729058610158    1.64678836811789
H          -0.87354004476567   -0.77056508433556    0.78532080438135
H          -0.84457406497093   -2.66638928325239    1.05586087370936
H           0.44177258801346   -1.97281124571979    1.57925031318240
N           0.05459288439605    2.38331996211019    1.02227709069746
H          -0.76410167645701    1.84490060152069    1.30964952402359
H           0.47237861768720    2.88760155411641    1.79744724318477
H           0.73065795967630    1.62837933304782    0.56541148096805
H          -0.22852519775315    3.01131362079073    0.21167693016066
