    23
        -45.37836973  Gyration_radius:  2.28817859222 Dipole_moment: 3.185
 S          -1.08598705128184   -1.02366220062728   -0.72889576007965
O          -2.05237037948762   -2.07530160515190   -0.56329311405839
O          -1.66916359014087    0.27101437167188    0.02546502433590
O           0.18286442229968   -1.29720025028887   -0.05253004575466
O          -0.86247308045499   -0.56090920847734   -2.08588037195312
O           0.13128589415095    2.36589589684573    0.24845318066309
H           0.55292824970024    1.81738971077173    0.94463000128873
H          -0.75236003825271    1.98208788986394    0.15484979552508
O           2.69966767648630   -0.60338080425536   -0.54992609047276
H           1.87584048044288   -1.11806327306743   -0.42441138125340
H           2.90772528035072   -0.25890817349691    0.32389481270936
O           0.96886257456779    0.35392318476436    1.82838487545822
H           0.65636842583265   -0.31211634034234    1.17122817867311
H           0.50139098884076    0.14860306450735    2.63956674679818
O          -2.26558126132869   -1.42367034105858    1.95069176090461
H          -2.18123958381488   -1.93212558985287    1.11304963958667
H          -1.96084760272844   -0.10998930607504    0.87650491359802
H          -3.15103498564369   -1.59714948842406    2.27844926552304
N           1.11711251704605    1.09543248561273   -1.85343212133305
H           0.30118277282507    0.42908936769244   -2.05090169319721
H           1.39829598916178    1.58816482843445   -2.69389713557123
H           0.79072871755808    1.75677377835456   -1.09065762374306
H           1.89680357386134    0.50410201260229   -1.46134284764323
