    23
        -45.37412494  Gyration_radius:  2.34060160736 Dipole_moment: 4.891
 S           1.24113175457459   -0.35472649455617   -0.29317627220299
O           1.21245188559289    1.10122027909943   -0.39159496148134
O           0.78564410355454   -0.80082114864012    1.03214541082740
O           0.47681242062362   -1.00108419993254   -1.33625064906903
O           2.73209672717504   -0.80967593208834   -0.39003391858056
O          -0.91470299657093    0.71535940302636    2.41676969805472
H          -0.52704403584049    1.36765216253089    3.00177092719177
H          -0.16307138531550    0.25161048856045    1.98846771104153
O          -1.40328337442088    1.67350149576322   -0.15837641658861
H          -0.44874951452983    1.61351324810658   -0.35406431302680
H          -1.46467148020247    1.51443071328802    0.79639843170505
O          -2.10962866736986   -0.59129944582808   -1.30391190833561
H          -1.19168987315618   -0.79815722940124   -1.59424283999923
H          -2.04949111718729    0.35822086007358   -1.03124849664305
O           3.08438470087101    1.05953006150343   -2.22613315263468
H           2.29718671888626    1.30700143102405   -1.69964961035059
H           3.73983161002789    1.74454643653658   -2.07562570988391
H           3.05895552544415   -0.31953135667145   -1.16981638559246
N          -1.69429358070935   -1.63667955968558    0.98094185138186
H          -2.01173083617093   -1.24775543812095   -0.02022941964906
H          -2.07393426785250   -1.04794747361842    1.72210972537668
H          -1.93335548506326   -2.61224519720968    1.11877390258108
H          -0.64284886228469   -1.48666308379283    0.98697640584764
