    23
        -45.37876346  Gyration_radius:  2.39263224352 Dipole_moment: 5.189
 S           0.83142469236852   -0.37071182146450    0.16232406551850
O           0.50158370832913   -1.50639221603744   -0.67346397919733
O           2.07289844057282   -0.73262961976746    1.00943726161530
O           1.15275097851419    0.80563376490443   -0.64854586427117
O          -0.26524358853199   -0.05314900307701    1.09493774323875
O          -1.70312172635388   -2.92665988300095   -0.60019419609559
H          -0.80310849239783   -2.52630708238843   -0.54047569363846
H          -1.64862747189107   -3.60003747251517   -1.27993294463594
O           1.87090000981810    2.87172823087302    0.83906732321649
H           2.73892780920618    3.13648179142167    0.53000023739195
H           1.56365050265136    2.17555835647236    0.21735486532789
O          -0.71124046710210    0.44509950475352   -2.45159343135445
H           0.01975491180355    0.72742013589929   -1.85135175924618
H          -0.37650720819097   -0.35710412230784   -2.86108172799172
O           1.55487514551102    1.04888532572070    2.77978991034915
H           1.72842450380201    1.86351368071708    2.26049194191500
H           0.63548235485529    0.81799263100489    2.58298125427278
H           2.04187797586740   -0.09404045104171    1.78464668654117
N          -2.28718645276162   -0.33492512063235   -0.47350920748761
H          -3.17234822350347    0.11276071698618   -0.26363767189514
H          -1.82930196288030    0.03932155798190   -1.35305913998871
H          -1.55093488682987   -0.16971276286082    0.29278241737734
H          -2.36493054286174   -1.37272614164877   -0.55696810095866
