    23
        -45.37177410  Gyration_radius:  2.40214599074 Dipole_moment: 3.422
 S          -0.27076293419327   -0.67904242482902    0.92616415916205
O          -0.76341707005416    0.68258313315351    1.09249007347362
O          -1.30148139150122   -1.60981204150077    1.63751686605148
O          -0.20867966234959   -1.04191908670531   -0.48304474694088
O           1.03018224126741   -0.87434427208221    1.56770361422066
O           2.41329068133317    0.08116962384344   -0.45659073754878
H           2.14140884557785   -0.58554578995621   -1.09442279852070
H           2.05547139336315   -0.25425055022248    0.39721049472755
O          -1.00951942457658    0.55025478634926   -2.37720195969665
H          -1.04280627322544    0.06726382183111   -3.20380340803767
H          -0.79989304729318   -0.11679224476074   -1.67452537855692
O          -2.27668865897075    2.41049935203017   -0.56517351361066
H          -2.08654518157734    1.87321042659256    0.21358542427638
H          -2.25710309153300    1.80061450610874   -1.31023871879563
O           0.58518368590933   -3.39515444126066    2.12207311554669
H           1.02618337483388   -2.54025004357479    1.93582529765402
H           0.74370857345810   -3.58694480329263    3.04915494958796
H          -0.81867289355757   -2.44886476841974    1.79275170822250
N           0.58824822604687    1.97083147855051   -0.72782578216310
H           1.46842999808255    1.38323401019507   -0.70361583861199
H           0.74775660453672    2.97076306293261   -0.66223825505752
H           0.02965065961723    1.72551267202962   -1.56800445622323
H           0.00605535478140    1.61698356283961    0.09220992075064
