    23
        -45.36325443  Gyration_radius:  2.36120114296 Dipole_moment: 9.417
 S           1.25130429450868   -0.12881357092433    0.79778458455467
O           1.52810032986391    0.11060235874090    2.28778040878314
O           2.52653206467171   -0.56128831642773    0.18895159718000
O           0.24771478197682   -1.18337474911906    0.64067672797185
O           0.78813467807647    1.11157661964681    0.18306322456700
O          -1.96750874552339   -0.13216839738213    1.81052988475269
H          -1.22474368429690   -0.66975220941661    1.48356212033160
H          -2.48880633414930    0.10308818225812    1.02361126764309
O          -3.09528539659121    0.20639629021167   -0.71950052648978
H          -3.68393434297685   -0.51715930671276   -0.94043987803348
H          -2.28440231875373    0.08172195762698   -1.23813359285712
O          -0.47872467419272   -0.24009411084889   -1.65015630017917
H          -0.40399155409774   -0.85217304710772   -0.87782812612275
H          -0.19740827143906    0.59496735328162   -1.22017417436969
O          -0.33948839796610    1.80387314360634    2.57992250910050
H          -0.13062489802177    2.10980033126498    1.68668448598547
H          -1.09338903800256    1.17316862768393    2.46492728777971
H           0.83458339779415    0.79547064379868    2.58736042729939
N           2.05172815109815   -0.76956700793466   -2.26564537021186
H           2.34944577088862   -0.69130061907190   -1.15346623231883
H           2.53419615435772   -0.05475119190254   -2.80043684344268
H           2.26880784412700   -1.69499731242511   -2.62082504249747
H           1.00776018864644   -0.59522564885522   -2.24824843942859
