    23
        -45.37876344  Gyration_radius:  2.39257420752 Dipole_moment: 5.188
 S          -0.35708666038318    0.83720509099008   -0.16313458123764
O          -1.45102924054474    0.24018896039871   -0.90067397656221
O          -0.12323434267329    0.13639890715851    1.11258983040060
O           0.87225018710094    0.84781730597678   -0.95883280223790
O          -0.73413434032263    2.29877526061264    0.17087741617132
O          -2.93110879343766   -1.79178531185498   -0.14956973944394
H          -3.56335137132174   -1.97587954283487   -0.84586925569892
H          -2.51106070792116   -0.93004009012311   -0.38370414982316
O           2.86726352614916    2.03235695140785    0.31176546899627
H           2.20024587750805    1.52987883626541   -0.20608617955078
H           3.17297564327722    2.73518607379185   -0.26413587203483
O           0.56600504179495   -1.52857500105749   -2.01469009195099
H          -0.20248419881174   -1.35477970061340   -2.56471407184964
H           0.83297430846487   -0.63486607442562   -1.69172147006346
O           0.92735762867774    2.42711946126599    2.12001942251778
H           0.68374566754285    1.49828881108295    2.24349930933234
H           1.77501806436956    2.40331641960331    1.62572320343557
H          -0.14249255701885    2.53891243860998    0.94679463455793
N          -0.36730038857318   -2.30617197031089    0.33674756009186
H          -1.40026450465716   -2.40360730530996    0.22059757531216
H           0.06866527709583   -2.18789330178306   -0.62204136131034
H          -0.22709611810559   -1.34851164420828    0.80558882997550
H           0.04414201178783   -3.06333457464217    0.87097030097267
