    23
        -45.37167401  Gyration_radius:  2.49804910413 Dipole_moment: 3.444
 S           0.82504122655022    0.04063950002953   -0.84052276871301
O           1.04394584687970   -0.20623335231497    0.58375159183507
O           0.56658561169321   -1.20435728188118   -1.55868355803844
O          -0.23536022017082    1.02168041513899   -1.03042852804315
O           2.13020033780872    0.67115418068261   -1.43018981471110
O          -1.85980450888218    1.91695939961770    2.64113070635054
H          -1.00321410133940    2.20794898199480    2.24339629919325
H          -2.44347266481804    2.67578966748672    2.60570940230674
O           0.36074176320369    2.39037331530741    1.22646024728550
H           0.97092968978075    1.66919598753699    1.42782033586831
H           0.11048234374605    2.21400149978458    0.30275149657703
O          -1.66300981513353   -2.30651932042120   -0.52902801326282
H          -1.73925555282071   -3.20381297863747   -0.85614621560211
H          -0.86118830216548   -1.93450964511848   -0.95235041123175
O           3.10570959144038   -1.71111225037180   -2.04988212974419
H           2.74473141058399   -0.07400445877173   -1.60482624818004
H           2.14697321260461   -1.81341385249200   -1.88154289325829
H           3.23219659311107   -1.84654636750223   -2.99177823499222
N          -1.53333412310527   -0.11396571528376    0.96851641344695
H          -0.51398886105179   -0.32065624383882    1.14435043648199
H          -1.91542379501193    0.49634396664974    1.72557853053437
H          -1.45039978843838    0.42777938879903    0.08119965031462
H          -2.01908588447151   -0.99673485639705    0.77471368558017
