    23
        -45.37350738  Gyration_radius:  2.30956747165 Dipole_moment: 7.166
 S          -0.83805715361818    0.26092004698019   -0.69139237153349
O           0.34260750349577    0.40963813192046   -1.54279122410712
O          -0.38051835734772   -0.61787143887058    0.52991645453246
O          -1.33657881283357    1.51918562225794   -0.19977334098453
O          -1.85215798448803   -0.58294552171581   -1.32875819875839
O          -1.08850117767740    2.21852799501023    2.35664274583934
H          -1.24664385526631    2.04598919858923    1.40439102807769
H          -1.91476558462117    2.02574169444382    2.80095285194291
O           1.44337640714327    2.43893286265318   -0.23124641576175
H           1.12588031698511    1.76278360566070   -0.86164663271566
H           0.70105414459267    3.03808635582826   -0.11483491725167
O           1.69855930283293   -1.75580420020993   -1.17733012902946
H           2.10606918723640   -1.60239242890879   -0.32103352895043
H           1.29962232607735   -0.88291213685148   -1.43551607405224
O           1.18157533626806    0.84655588633702    1.87967930972675
H           1.49540273500510    1.46411670653115    1.17627741119957
H           0.50252916833120    1.36011327460004    2.35731508558358
H           0.26440886106624   -0.06882492163457    1.10951434267564
N          -0.70316245510515   -2.81872324345312   -1.14660411695926
H          -0.90004146169462   -3.46841292479941   -1.90137293822225
H           0.32282998597930   -2.51446308377710   -1.14513906363483
H          -1.27466622736334   -1.86275810567470   -1.27257664093517
H          -0.94882220500346   -3.21548338492044   -0.24467366667155
