    23
        -45.37876345  Gyration_radius:  2.39242882065 Dipole_moment: 5.187
 S           0.61557364765916   -0.49157655641088   -0.48476034693063
O           1.80223872592896   -1.46221816543074   -0.68366203520554
O          -0.38954115637438   -0.78772175126749   -1.48435028939262
O           0.09532075543545   -0.69990644503017    0.87876837193603
O           1.11168163799237    0.87907628339115   -0.62514632319308
O           3.02972901257826    1.42313351608154    1.11342116191253
H           2.28948285479007    1.32426264339796    0.47480856206426
H           3.78519677300515    1.71149220752636    0.59843268429252
O          -2.83389354466211   -1.63747592130450   -1.05250240748089
H          -1.88038726045895   -1.48412051705781   -1.25550261271460
H          -3.27319651456401   -1.73012879008361   -1.89918038342841
O          -1.20236525438350    1.98150895786906   -1.15949635067350
H          -1.36770283542108    1.58309345742945   -2.01812302989089
H          -0.27148231358080    1.72489457587684   -0.95477065015284
O           2.63370151841059   -1.15762624447639    1.72307075311905
H           1.68875677652975   -1.09273233597846    1.92355058365946
H           2.27734417096822   -1.46163391782623    0.20176272397755
H           2.94811651032061   -0.22878274624279    1.68055103820255
N          -2.24814505025338    0.33664654711371    0.63084000472566
H          -2.76102576337417    0.65919351783037    1.44379049172597
H          -1.98038201330303    1.12022280181145   -0.03074688945993
H          -1.30802831851821   -0.11631799438085    0.89076517697480
H          -2.76099237872547   -0.39328311283702    0.08847975593233
