    23
        -45.37892900  Gyration_radius:  2.30155587387 Dipole_moment: 3.019
 S          -0.32657256366455    0.83803327261924    1.19769596666110
O          -0.30484885206545    1.99975744548724    0.34747342842606
O           0.80021067992589   -0.07123225003738    0.88046218096308
O          -0.11653106746170    1.31593737889725    2.66673355666527
O          -1.58164046934471    0.10062416496278    1.13117073709833
O          -0.70660725552675    1.47583067391749   -2.22323917070520
H           0.22706216812317    1.20639954324905   -2.31049562086115
H          -0.71968763208062    1.90628723277154   -1.34282136141690
O           1.80338750656838    0.70151649098948   -1.49512383144063
H           1.48021434315123    0.51137973450333   -0.58991665539423
H           2.30553950563733    1.51463904432616   -1.42102576245121
O           0.62728845612834   -1.96448163366391   -1.03769982179790
H           0.73142815286855   -1.44118411341989   -0.21820857004053
H           1.26276980143323   -1.58019248908260   -1.65004728332612
O           0.66455475139420   -1.13907307156036    3.28840103377215
H           0.80836347166596   -0.98611694949229    2.33422603524151
H           1.53238887494645   -1.23337622801304    3.68746602848007
H           0.00432968831494    0.48320912380729    3.16223063983301
N          -1.72819588641471   -0.74940231491304   -1.30432636032145
H          -2.58826156726655   -1.15863843588976   -1.65090751424494
H          -0.91830584852606   -1.41689019260180   -1.34077077922058
H          -1.44475902167607    0.13734204159892   -1.83103389259416
H          -1.81212722613795   -0.45036846847141   -0.28024299332321
