    23
        -45.37605352  Gyration_radius:  2.3679026567 Dipole_moment: 6.081
 S           1.32917363035596   -0.19723207533166    0.29231809787448
O           1.26283596147221    0.72255416881254   -0.81901607486585
O           2.82494723904688   -0.33604809801378    0.70940154683820
O           0.60649621139690    0.34784055080913    1.46668992298741
O           0.81422670149207   -1.51409036417845   -0.03957500985308
O          -0.47007706134220   -0.04696003565438   -2.82486136010182
H          -0.99310656170253   -0.73791102620192   -2.40203663737205
H           0.33142546894699    0.03900686587636   -2.28160402594219
O          -0.80694735802706    2.31558658703330   -1.63066935531015
H          -0.88445607141039    1.63870906697094   -2.33777429195848
H           0.11903787190518    2.22069178580771   -1.35536910009600
O          -1.66011077467059   -1.59481790506255   -0.71755647780163
H          -2.01612674841664   -2.45863054281386   -0.50441142444009
H          -0.69036911257653   -1.63299293785567   -0.47630863604222
O           2.03447021251209   -1.11571355075440    3.11912298723872
H           1.31843787740062   -0.60059177322758    2.69573559520493
H           2.78128098901770   -0.81526501629923    1.55993872408027
H           2.38305554362030   -0.56944910718615    3.82732936405533
N          -1.68937223355367    0.87490874559829    0.35839171912518
H          -1.43955064796492    1.54860621026892   -0.44803487329953
H          -1.92789338195413   -0.05539038794413   -0.04606468506007
H          -0.79086643692670    0.73038040829598    0.91321202115692
H          -2.43651130861926    1.23680842104895    0.94114197357531
