    23
        -45.37286533  Gyration_radius:  2.29679705787 Dipole_moment: 4.244
 S          -0.96896443152921   -0.44458851601341   -0.75335072732667
O          -0.63563202785008   -1.84416150598042   -0.83633045945617
O          -1.30246181066518   -0.03138518076171    0.61065962649220
O           0.10259499141038    0.41525922273765   -1.28103912512619
O          -2.23167653763049   -0.20572800185719   -1.64116463924148
O          -0.69969270881820   -2.33074581489069    2.04060616737236
H          -1.22655986522546   -1.62912666502223    1.63535751596800
H          -0.55828526590158   -2.96497184554390    1.33371914198071
O           1.41774005604221    2.11550159286388    0.31837571716227
H           1.00247735772763    1.51942043577238   -0.34150553879462
H           0.85366325722329    2.89001626261303    0.35856747385307
O           1.90518290623472   -1.61836382240346   -0.21363025977389
H           0.99959049854444   -1.88525206392228   -0.49143474884036
H           2.19770995135553   -1.00561698320104   -0.89366575926780
O          -1.51344842949149    2.34111591015270   -2.00578204091959
H          -0.74594428864509    1.76972724692218   -1.79241790877502
H          -1.43809090294476    2.56867682748109   -2.93496448433398
H          -2.29679154249600    0.76308072136512   -1.74141419651543
N           1.04812481696480   -0.07945589170103    1.76529087183379
H           0.03401813660354   -0.05775362288535    1.44858290694561
H           1.11123564961950   -0.37396595841058    2.73480302725929
H           1.51615883346516   -0.77692921990167    1.11671257295326
H           1.42905136598697    0.86524686257506    1.56402485656903
