    23
        -45.37703260  Gyration_radius:  2.31049645004 Dipole_moment: 2.517
 S           0.16340892336879   -0.95812025694584    0.83290375611402
O           0.13459911819751   -1.46463057487125   -0.54087785470013
O           0.09444467814534   -2.18463560275134    1.79711927315821
O           1.41339386379203   -0.27542350603229    1.10696723077640
O          -1.00510927857962   -0.12011103249248    1.10482870028325
O          -1.55605073241740    0.61667440290334   -1.41562171563232
H          -1.46868488586834    0.44398000172453   -0.45845122287246
H          -1.42634966299965   -0.24527216406922   -1.82037030134048
O           0.60065292321175    2.27323197119809    0.96614985254234
H           1.00265392859711    1.40264245596105    1.15033534828050
H          -0.31614599373156    2.17226372864865    1.23659850505520
O           0.62293596887471    2.13596738044802   -1.69796247963538
H           0.67005894799585    2.43044201542762   -0.75873487395839
H          -0.26641796335191    1.71930983886133   -1.76810073046956
O          -2.55098672304797   -2.17862938170869    1.66756266098794
H          -3.03261478420706   -2.06849871263802    2.49048740259183
H          -2.23860537323453   -1.28971516607595    1.40543724042126
H          -0.84137816442925   -2.47399481737003    1.78538533096641
N           2.03959976105320    0.00699373558368   -1.45118056170940
H           2.45922128486219    0.08719585640959   -0.51773296289955
H           1.27219394231941   -0.71695183257158   -1.28403096194505
H           1.52049168425446    0.95471739087786   -1.66864045210732
H           2.70868851720161   -0.26743573051434   -2.16207116390535
