    23
        -45.37703250  Gyration_radius:  2.31048012259 Dipole_moment: 2.510
 S           0.70504953495158    0.67805770170985    0.82644746479069
O          -0.68283443524505    1.12791889075526    0.71332383012823
O           0.82196322144827   -0.59861826326783    1.50508341306803
O           1.34844119145632    0.63196534050053   -0.48823851132674
O           1.46770731658495    1.72684759825922    1.69645704836403
O          -1.11939493132321    0.41795655088316   -1.83706192039313
H          -0.28095040587670    0.72828445342106   -2.18949619851328
H          -1.10926892093482    0.71461211117122   -0.90674709093038
O          -1.03802346123197   -2.21055469967653   -1.36861661102987
H          -1.42079839781705   -2.16942885969670   -0.46157430014094
H          -1.19948703401620   -1.30963202745099   -1.73174969889161
O          -1.65352485424784   -1.55683832876296    1.14392553672802
H          -2.14903827824386   -0.73447655559250    1.09927500098648
H          -0.76220222573419   -1.28517945743707    1.43598621973968
O          -0.02127261578321    3.67873718842410    0.70266738980711
H          -0.53642251618359    4.19977692345362    1.32268151563196
H           1.16870198145446    2.60156639952933    1.37239627211115
H          -0.50592511919536    2.83930098732665    0.57259010988432
N           1.42714303038402   -1.93173617170202   -0.70118044841122
H           1.42739897947822   -2.03957031085347    0.31987091096414
H           1.53801227281837   -0.87501480334693   -0.80798958349050
H           2.16106461112847   -2.46490850008764   -1.15441921596716
H           0.41366107612551   -2.16906616755838   -1.06363115311078
