    23
        -45.37432794  Gyration_radius:  2.32644730279 Dipole_moment: 1.847
 S          -0.66429181602342    0.02569339550202    0.97374934734591
O          -1.61344307582220    0.01197207081493   -0.14396735260505
O           0.33652596447157   -1.02980960893933    0.80240960521133
O          -0.04221503616002    1.31915685361165    1.14865523697731
O          -1.46582829562241   -0.28528890908003    2.27614370805308
O          -0.12104517723831    1.55863087526133   -1.68702032617369
H          -0.04557124674342    2.33954173968138   -1.13114109595556
H          -0.79011486689685    1.00094808356404   -1.23451234436276
O           2.54837977648196    1.88430392566520    1.00365808076307
H           2.93846646576138    1.75932860154989    1.86995972656654
H           1.57748197293779    1.79029741351111    1.13162017641967
O           0.07455833681163   -1.81610685641989   -1.83036100063558
H           0.05035444080692   -1.81892734755169   -0.86253864191624
H          -0.74812140212246   -1.40542527703942   -2.10333915388065
O          -3.03656734897190   -1.91858740496298    0.91401071398347
H          -2.05130776209416   -1.03316317772510    2.03575949767585
H          -3.97638795992743   -1.72387974916572    0.91856810725786
H          -2.62433936289967   -1.29469491601486    0.28197711010910
N           1.96901455898814    0.11985678577885   -0.89425735251995
H           1.42001613876804   -0.47632059147062   -0.20873962630420
H           2.53567024684646    0.77953088184271   -0.32202723786836
H           2.50138353137204   -0.46355686621317   -1.53189028647188
H           1.22738191728964    0.67650005783122   -1.40671688170145
