    23
        -45.37376560  Gyration_radius:  2.33162427729 Dipole_moment: 1.661
 S           0.97360129214089   -0.54234543218790    0.24671184738321
O          -0.16936702511054   -1.43682556693337    0.22383309273247
O           1.22246416854547    0.03647511636277   -1.06827646534720
O           0.81013520274106    0.49767069074870    1.26834402943427
O           2.25096540110060   -1.36153696330073    0.61343326639890
O          -1.77233916388125    0.82474371357816    0.80543368877286
H          -2.07063711453704   -0.07613691841971    0.96351951660019
H          -0.83354641573378    0.82290349175773    1.09257526023206
O           0.59962175004088    2.69896834019184   -0.71154523276517
H           0.53313416699134    2.78697380875792    0.24153673829499
H           1.09752311770761    1.88126876807485   -0.85284279879874
O          -1.76834820602138   -1.86842164188323   -1.83487910364395
H          -1.21182138496888   -1.82259266361797   -1.02224921068461
H          -1.38310817496986   -2.56003450805824   -2.37478725305607
O           1.77185170586100   -1.01073814386584    3.19002229906655
H           2.45463699187973   -0.55914794574788    3.69136325193867
H           1.28303113231573   -0.31974592043234    2.69832164545230
H           2.19799466132035   -1.49294960102914    1.58311993613036
N          -1.21847476986722    0.72015873853348   -1.78516452041231
H          -1.64766173307739   -0.18063500470479   -2.08970529407144
H          -1.36527912017265    1.50260551137006   -2.41462136204936
H          -1.56702178469452    0.93470501311871   -0.80610277965526
H          -0.18735470774751    0.52463711781367   -1.65804055209147
