    23
        -45.36487292  Gyration_radius:  2.53685358618 Dipole_moment: 5.731
 S           0.67122739092987    0.48098605428878   -0.48827613843323
O           1.18078262195545    1.20378945569670    0.65573476182006
O           0.32040323795640    1.37907607854476   -1.60697732960875
O           1.50496395306769   -0.61238816538937   -0.93191454747829
O          -0.70735044759026   -0.17483947916248   -0.07134432792573
O           0.76329715715613   -1.99133634507284   -2.98951785545395
H           1.09258526208413   -1.59038987024066   -2.13943573049093
H           1.50059737346719   -1.92866381207755   -3.59969841482310
O           1.60228233067584   -0.34556916475911    2.76232468225618
H           2.40580884972688   -0.02281178327301    3.17389213916984
H           1.50104017034430    0.16969306381531    1.93281174759563
O          -0.84123108332593    0.10837715771699    3.77383147115429
H          -1.29775363489513   -0.73356755111962    3.73781924840856
H           0.08633493739873   -0.07907439932127    3.50690715922171
O          -1.31952558523430    1.62521041371340    1.62028804989799
H          -1.26958722180510    1.16756363129140    2.49285273120808
H          -0.42577951050549    1.96350812327169    1.46167405797566
H          -1.09271802741390    0.48086517914094    0.59330550837267
N          -1.17407952215652   -0.22661696969974   -2.81373492310060
H          -1.73508419585917    0.08397912223927   -3.59956510125538
H          -1.75000046243547   -0.54727339206056   -2.03680191664790
H          -0.49034396734382   -0.99684930493052   -3.06600049373558
H          -0.52586962620017    0.58633193735664   -2.36817478812862
