    23
        -45.36454199  Gyration_radius:  2.27373894541 Dipole_moment: 8.875
 S           0.15762257716281   -0.74216888011118   -0.30881326789386
O           0.71626668932482   -1.08236736042455   -1.62477965488824
O           0.80629876412937   -1.55091801291636    0.74365040158600
O           0.66381248263651    0.71212556258084   -0.07032406432029
O          -1.27587276444488   -0.78858264897293   -0.24540147022188
O          -2.63000020152449    1.55782079967733   -0.20550939963071
H          -2.24882698411032    1.91017101596579   -1.02319473769455
H          -2.40698365968788    0.61200593686879   -0.23936988658644
O          -0.78266867245045    1.43727817557958   -2.32975293626661
H          -0.82450854556213    0.54506276306588   -2.68201786103714
H          -0.10871880723591    1.40204600657125   -1.63937713170458
O          -1.07109407330467   -0.77625502227740    2.55957764484075
H          -1.85230709210181   -1.04109802600415    2.06503240381601
H          -0.32596407916738   -1.15775380114107    2.06526039537252
O          -0.77324353605989    1.73764830680484    1.67263209059002
H           0.11036895915930    1.20295566852161    0.70369369914800
H          -1.57459654056287    1.85563390291536    1.10027445066677
H          -0.94294613390887    0.93638505159328    2.21763565456106
N           2.94815900135671   -1.35879165107511   -0.55551277447956
H           3.54950722293904   -2.15169011193593   -0.75396990835676
H           2.12908727925137   -1.22176913427741   -1.28797641528227
H           2.25659453614987   -1.53311728048789    0.25888594977068
H           3.48001355724928   -0.50462128052641   -0.42064318170613
