    23
        -45.37992117  Gyration_radius:  2.36394390502 Dipole_moment: 3.337
 S          -1.26155423883935    0.31687289513828    0.17951602739199
O          -2.66133374348709    0.91467315047729    0.52231525838784
O          -1.35208024024932   -1.12442559165856    0.14132857222106
O          -0.86857490571665    0.86129420094300   -1.13581801589527
O          -0.34967179881313    0.78098995780805    1.21606343521173
O           1.18930879560763   -1.07616695421329    2.32992413422222
H           0.54660112510763   -0.41567685013319    1.98570204501212
H           0.72740962923422   -1.55233958591144    3.02133233056318
O           2.26316094994339    1.35866074631954    1.02445083104636
H           2.54532526818705    0.70834411130284    1.67654987469779
H           1.29898033022396    1.43889642597685    1.16510652937193
O           1.03127690802977   -2.21021588821986   -0.13132440018364
H           0.06662328292380   -2.01469584420059   -0.12291384425034
H           1.29940877687523   -2.03769758741594    0.79184937223891
O          -3.33842966722478    0.69755040589099   -2.02633925935368
H          -2.36229572381371    0.70843003382309   -1.96703718817365
H          -3.17961356222169    0.76489481538116   -0.29311771195560
H          -3.59732756710416    1.52081108034436   -2.44678222699808
N           1.62806366044374    0.07662745158126   -1.21594195833908
H           1.50402423995923   -0.93924890907176   -0.87590417976383
H           2.15259943549765    0.13913558214239   -2.08134778604022
H           0.64510505558424    0.45551373425951   -1.32330758595317
H           2.07299400984169    0.62777262944398   -0.43430425348200
