    23
        -45.36240457  Gyration_radius:  2.4388170305 Dipole_moment: 7.873
 S          -0.96870382877401   -0.82564534558485   -0.30170725208738
O          -0.36374909067158   -0.89237388637250   -1.65430023637179
O          -1.90650722869987   -1.92410096443962   -0.10742268531513
O           0.19222817144718   -1.12388609620390    0.68418978868587
O          -1.50236262885160    0.49032044815243   -0.02945275002667
O           1.29228807839975    1.91129099668572    2.60620811538585
H           0.45815959677621    2.30426505529989    2.26139394726574
H           1.02912294949511    1.27723523202479    3.27492695579692
O           0.30137036556059    1.88727133976259   -1.42677730095620
H          -0.45523824567095    1.45786693151342   -0.98203123020567
H           0.42397915226584    1.37839382785972   -2.23173092670233
O          -0.97144262182795    2.72223235044457    1.42168413417985
H          -1.31137428497545    1.89747909178337    1.03307309644416
H          -0.72622851342288    3.27286165844260    0.67349065194650
O           1.93373964641314    0.65920234341448    0.34662922081598
H           0.95085514546256   -0.42425379532285    0.55764332252261
H           1.50344181976535    1.22702919043460   -0.32836259152287
H           1.86877493425871    1.16053942077480    1.19439250609052
N          -0.32336844918182   -3.36202224328755   -1.42035087167698
H          -0.14979965940169   -2.30958391265799   -1.74833264714902
H          -1.11955166094957   -3.06206354391464   -0.74959838056029
H          -0.62741412069584   -3.98555737237726   -2.16036195701483
H           0.47178046329138   -3.73650072640324   -0.91320289941703
