    23
        -45.36866958  Gyration_radius:  2.27845478011 Dipole_moment: 3.031
 S           0.51078411929268   -0.64527247629491    0.24259686482123
O           1.06451682958352    0.41962677825710    1.05322195096268
O           1.41012101829075   -1.08128375549197   -0.80987354309468
O           0.18522454650210   -1.83707549966245    1.18288937950251
O          -0.79044388370946   -0.22797298391713   -0.33789602538477
O          -0.27564972012113    2.66073122109843    1.29338127554269
H           0.39497136358181    1.94888175736056    1.40827069708380
H          -1.09355973942762    2.23936694182829    1.63640844804049
O           2.03339989251945    1.39359684967737   -1.46722107557308
H           2.53073103104862    1.65775149712825   -0.68783124445183
H           1.90271879983913    0.42174758022706   -1.36429084414361
O          -2.00003013342096    0.69767320858860    1.87055018682026
H          -1.70218146162239    0.27118386423799    1.04381574410004
H          -1.67753496250450    0.14059020778712    2.58138378537074
O          -0.39416687283815    2.10737538357037   -1.12599910197871
H          -0.69526708719029    1.13281281755082   -0.92624315447795
H          -0.38585409470346    2.52030185904175   -0.12405733418245
H           0.58989656921213    1.97427720179933   -1.38426122617499
N          -0.37690907591030   -3.27862182699914   -0.89474628057953
H           0.35434147366875   -2.71725069501109   -1.32441459375401
H          -1.26398009419446   -2.98487612879882   -1.28262720595752
H          -0.22710838654218   -4.25228884003900   -1.12561763362849
H          -0.09402014141007   -2.56127497177646    0.54256093126209
