    23
        -45.37432796  Gyration_radius:  2.3259739047 Dipole_moment: 1.837
 S          -0.07570116765744   -1.17197332818456    0.11759552789784
O          -0.04873699262219   -2.72226284385489   -0.05985658336256
O           0.85318832452965   -0.59473520775685   -0.85664664339266
O          -1.44357850701696   -0.71878454931314   -0.15480132431283
O           0.33668661619302   -0.88555383312232    1.47347864945866
O          -0.57712679730326    1.43510912953451   -2.06296473606853
H          -1.47725129680508    1.27222119707244   -1.77452107430297
H          -0.10733800146218    0.60104190027556   -1.91840934060646
O          -1.20231101908995    1.50109326124771    1.26390906952457
H          -1.45329459605945    0.72037836668564    0.72439740280638
H          -0.97980708291395    1.13485126924621    2.12465202458929
O           2.37146790054195    0.63894416520342    2.24025751981157
H           1.62759566510080    0.01529955712783    2.08037872703489
H           3.16055760093572    0.09709467380957    2.28498658787317
O          -1.80470026817553   -2.51857444394895   -2.02657969100331
H          -1.87488960387572   -1.71592432255864   -1.47040647813609
H          -0.54511734342491   -2.88619145281151   -0.88834761623518
H          -2.63199557285340   -2.99485759991784   -1.92711684955033
N           1.19715129769163    1.79624653311913    0.15878428273386
H           1.17230571152638    0.87695119607998   -0.37119977296865
H           1.41789461389698    2.56551168935478   -0.46556688730784
H           0.22142196445817    1.89141865919877    0.56060802701193
H           1.86357854431991    1.66269597348364    0.94736916843882
