    23
        -45.36003497  Gyration_radius:  2.46069720089 Dipole_moment: 6.954
 S          -1.21307525438869   -0.32325536919708    0.24412055935369
O          -1.52094295346020   -0.34108264014747   -1.28405736594932
O          -0.35822994331416   -1.42744066841468    0.59249089566108
O          -0.59470892773733    0.99069767369258    0.50675071540203
O          -2.54633898676191   -0.37557611499209    0.85851083640913
O           1.25469685555392    0.04799125327647    2.24323378757127
H           0.83209525997966   -0.79634277587729    2.03532553265470
H           0.73864105584548    0.67877401397613    1.71651731224688
O           1.90051527287255   -1.71880704969035   -0.90674964581955
H           2.56498812188500   -1.19816078719043   -0.40779837486027
H           1.12791159858386   -1.78694773327428   -0.31893401892243
O           3.48031101267320   -0.28983513301977    0.77033324187164
H           2.73175752292653   -0.05795540469461    1.36516493434636
H           4.10023390068475   -0.79020305366975    1.30309413053609
O           0.63320460245828   -0.30352418525089   -2.65710938358967
H           1.23644850195294   -0.80809215009266   -2.03037967131065
H           0.51992231201767   -0.87312550934754   -3.42101418390864
H          -0.66664342699890   -0.29276525439578   -1.83170407944326
N          -2.88906699812230    1.99541116688542    0.23165461486124
H          -3.28301467302258    2.66657569716464    0.88233050791781
H          -3.21150920000349    2.15466062364788   -0.71707742442559
H          -1.81916553999375    1.92797107557708    0.28271124830953
H          -3.01803012362765    0.92103229502164    0.54258583107992
