    23
        -45.37811684  Gyration_radius:  2.37709034121 Dipole_moment: 3.950
 S           0.03042583793753   -0.32498132904495   -0.85575921314895
O          -1.09397665410042   -1.07957196068977   -0.30134273584688
O          -0.14267515992033   -0.23926891712221   -2.38977598088764
O           0.02725230583970    1.05253133453290   -0.32384036111468
O           1.29974169689659   -0.97314183928192   -0.60245732332358
O           0.14976155143313   -1.78663790514308    1.89886317334680
H           0.85510939875453   -2.33280080054800    1.54040903980107
H          -0.44087416200860   -1.61789593035246    1.12749793435520
O          -2.67489012247555    1.03884778040822   -0.15654093669839
H          -2.35040666272789    0.12630476680786   -0.03428861753245
H          -1.85929863369552    1.55816803225838   -0.12617473852512
O           3.38866369371322    0.02498120312082    0.63786172830743
H           2.71398833692011   -0.44995508230764    0.09637420420544
H           3.85346073006614    0.59918210141049    0.02705281124636
O          -2.59305569028807    0.54999244535279   -2.75119242218324
H          -1.05911398417723    0.10404571694923   -2.59365402542575
H          -3.12467443163370   -0.23632093312410   -2.89313222574225
H          -2.79081311580142    0.85607793982817   -1.83022685905528
N           1.16716437502143    0.65146334371719    1.94746330682102
H           2.17121947130820    0.53774440653079    1.67062576784385
H           1.03609193581790    1.28573632407293    2.72750205732954
H           0.66516960330821    0.97198705245343    1.05294588979913
H           0.77172966980762   -0.31648771983135    2.13178953642564
