    23
        -45.36003508  Gyration_radius:  2.46068166795 Dipole_moment: 6.955
 S           0.06410675253787    0.49407136111294    1.17753087404179
O           0.30189385056365    1.22331977517534   -0.08309785499341
O           0.44338260952086    1.33864829669110    2.31816939151496
O          -1.48530871545107    0.38573577212376    1.31084099834311
O           0.65779972860090   -0.81691686811515    1.19015715733050
O           1.37660703148014   -2.11886496825184   -2.53045741071979
H           1.81001333285046   -1.39250629567629   -2.02792267166176
H           2.05336391585315   -2.78052151612747   -2.68118979759067
O          -0.39979268918060   -2.63242133450587   -0.54758390829801
H           0.15277209304559   -2.51760216114720   -1.34946211891023
H           0.05150396994429   -2.13102470014746    0.15388167764504
O           2.40991936770336   -0.29115940844594   -0.84885295861268
H           1.74495337799298    0.41546393374718   -0.85922661403720
H           2.21561135991043   -0.75189849208804   -0.02143737153836
O          -2.46791697040644   -1.08473179098265   -0.53262801204195
H          -1.88128128057899   -0.17158604917633    0.55922233925722
H          -1.70211097987765   -1.72439390450331   -0.65811698029463
H          -3.18199206713465   -1.60658336094298   -0.16036648189394
N          -0.45888752223523    3.30586748243636    1.11534882233292
H          -0.07181621614900    2.58379115394484    1.88829472512533
H           0.04588959768134    4.18494223364765    1.07746172206018
H          -0.21884973529252    2.64033201118322    0.30881179240037
H          -1.45986079140836    3.44803883010474    1.20062267050121
