    23
        -45.37432802  Gyration_radius:  2.32629673695 Dipole_moment: 1.839
 S           0.87753136938677    0.11048950022644    0.78045734112899
O           1.06462222219113    1.38451374761175    0.12286127147919
O          -0.35202005937025    0.07200932465658    1.57883743514449
O           0.89230660666803   -0.99428780782119   -0.18101623775466
O           2.07889426809279   -0.09102737687563    1.75590962418654
O          -1.76633947730052    1.46460031804580   -0.17011526620708
H          -1.37628240875368    0.96189862518992    0.57738314138464
H          -1.24562397154384    2.27182207854410   -0.21246813377475
O           1.22600580665556    1.83005111128557   -2.49017025576005
H           1.23224682818065    1.78499267492656   -1.50742850483109
H           2.14064125426036    1.73815991210936   -2.76086004815291
O          -1.70757733605269   -1.92110271355316   -0.21630453958030
H          -2.10501892400830   -1.49291868658922    0.54445517124067
H          -0.75209657257587   -1.86700260200655   -0.07010639669500
O           0.61025603738567   -1.73520442794387    3.21569466778459
H           0.48029193690754   -1.50484080040276    4.13826910994512
H           0.00608231648512   -1.16572395910748    2.69683195220511
H           1.80378975252639   -0.82698328864975    2.34119077446285
N          -0.63761743587309   -0.01416199493985   -2.06899921943326
H          -1.17043899860379   -0.65526577213684   -2.64813913910365
H          -0.03180577873114    0.65253903997354   -2.59073130347087
H          -1.26922643126114    0.54344939365513   -1.42660167277448
H           0.00137900522865   -0.54600631581152   -1.40894979131998
