    23
        -45.37432774  Gyration_radius:  2.32678286508 Dipole_moment: 1.847
 S           0.11357668447306   -0.38800171387097    1.10678121422121
O           0.77086866852422    0.88582490171697    1.29628360163759
O          -1.22157533274878   -0.21943156666813    0.52866811193419
O           0.90932195506019   -1.30763127105828    0.28727502084740
O          -0.05593861118970   -1.03831148474077    2.51515470918197
O          -0.12243290002425    3.27517408421716    0.55840426996947
H          -0.66353881402048    3.63190118461885    1.26424849585670
H           0.28705737589300    2.45795904153593    0.92222880394361
O          -1.00803045601221   -1.24053307623847   -2.02650628185450
H          -1.25596391097388   -1.13073114479131   -1.09708765991206
H          -0.16660588271432   -1.70084276244316   -2.01159432153596
O           1.76600706522783    0.58280852783979   -1.35365109384642
H           1.55498019866244   -0.21823631124439   -0.82707092298145
H           2.20170592741196    1.17071400157574   -0.72986603087868
O          -0.15269275882274   -3.43181583235366    1.39642429833155
H           0.50690052620242   -4.07052516513478    1.67603115862756
H          -0.27420296514567   -1.97584410435090    2.33255282718660
H           0.29362859426211   -2.82254510201469    0.77339879713270
N          -0.71719417845758    1.53157770087929   -1.35405443817135
H           0.26291491584254    1.19083506072892   -1.56787297051732
H          -1.08531333393374    0.83620868029148   -0.64148669964858
H          -0.64510791794774    2.44613442357559   -0.86198999379917
H          -1.29836484957943    1.53531193796435   -2.18627090571185
