    23
        -45.35919111  Gyration_radius:  2.43677727465 Dipole_moment: 6.690
 S          -0.38475857724905   -0.97769571067799   -0.16532246770655
O          -0.73899890400162   -0.12473836933384   -1.27360842618990
O          -0.86685397032254   -2.40390156559226   -0.43545988162375
O           1.14633087127051   -1.14797986223301   -0.14165624190374
O          -0.86139540779106   -0.54195470162228    1.11347192245312
O          -1.45909221549508    2.15554485809993    1.69649640415440
H          -1.63840513391938    1.23735293822946    1.45371054663476
H          -0.84836963086674    2.08397730633455    2.44482942098078
O           0.17053381793742    0.64083687035120    3.41216929053391
H          -0.05787971997000    0.11601611920445    2.62988787256130
H          -0.13786412388557    0.14156172072539    4.16986861868069
O           0.06716233115058    2.36669051400012   -0.49420576454755
H          -0.33091348992258    1.60733806819457   -0.95009231537024
H          -0.50752879153976    2.51712882399743    0.29028304686326
O           2.15164425491273    1.10625253694131    0.33923599900465
H           1.38528341533589    1.70618350473938    0.07205937221042
H           1.60712435894129   -0.25561021850412    0.10321598842351
H           2.88332344510139    1.32349794409270   -0.24216542437807
N          -0.28698931653387   -2.35271168067266   -2.92163035923231
H          -0.40909664597725   -1.34464673574205   -2.87126913825878
H          -0.89753717942231   -2.73189370583418   -3.63296182997292
H           0.67230276097673   -2.56177461319811   -3.16291112717903
H          -0.65802214878202   -2.55947405143115   -1.43394550609524
