    23
        -45.35919100  Gyration_radius:  2.43691607307 Dipole_moment: 6.690
 S           0.77244451847262    0.59032867200250    0.43062918382706
O           0.24971425932972    1.42086576847672   -0.75709661038354
O           1.37204297007113   -0.62564317515628   -0.03219297136602
O           1.84931678433333    1.50391017812641    1.01799889122345
O          -0.29704839354115    0.42123926055490    1.38403197373811
O           0.02328930875750   -3.10640730902004   -0.02729889321788
H           0.62218100057460   -2.41891685029998    0.29348459552288
H           0.22535431995206   -3.16929726814932   -0.97249600549447
O          -1.99314207612255   -1.35694266567303    0.19000402932618
H          -1.42057796893356   -2.15471391615656    0.12680446672859
H          -1.53121206653037   -0.76996862137440    0.81048961169092
O           1.35309799855929   -2.19763817457803   -2.32922833110901
H           2.26073278344831   -2.40165617266481   -2.55960186769309
H           1.39417024103877   -1.51910394710442   -1.63822385269967
O          -1.52790295313956    0.06343414967784   -1.90643250838944
H          -0.45076538914571    0.88393956957399   -1.29528034319721
H          -1.77477250716285   -0.57531498609159   -1.16506338690998
H          -2.31836701734260    0.57016707631394   -2.10384611841515
N           0.19173327189315    3.07455447085804    2.16067525395942
H          -0.20420245367950    3.80538536137785    1.58512448027733
H           1.31966683475944    2.24632042343246    1.50085406941960
H           0.33285089795671    3.43008527432370    3.09672967735185
H          -0.44860436352721    2.28537287156809    2.18993467581141
