    23
        -45.36892800  Gyration_radius:  2.34236030125 Dipole_moment: 7.011
 S           0.51560664999975    0.77697727919877    0.01999067404726
O           0.12891389338069   -0.30352361207704   -0.89573318594458
O          -0.40120569020484    0.85548840063700    1.15222741935638
O           1.91988627317161    0.46800585469492    0.57889155751055
O           0.56932442392586    2.04867057749999   -0.70302703654848
O          -2.80921017965908    1.50075226297177    0.34227755372291
H          -3.06818232018674    2.27753251735996    0.84158991912655
H          -1.96266790834728    1.19192014637729    0.75143186758438
O           0.43441223453512   -2.69399662799322    0.33575376453693
H           0.08912375487538   -1.93790205092148   -0.17069070042926
H           0.37243684592958   -2.41178477689686    1.26926020784341
O           0.48118630146009   -1.21409143550263    2.60923212792384
H           1.38564196178521   -0.95575872309882    2.79927363040345
H           0.06930081666431   -0.43669618188443    2.18623009856931
O           2.74598901461005   -1.74365182793521   -0.39402195890195
H           2.65884904258174   -1.68636269145692   -1.34782947066771
H           2.30113661885956   -0.38855744198890    0.18242721603156
H           1.96532120825953   -2.28876602257043   -0.08578096053512
N          -1.52014658421330    1.40301645156642   -1.94796937972604
H          -0.64780001461904    1.93709549332675   -1.57757559874856
H          -1.14061530841911    0.43632828056110   -1.86753741693744
H          -2.25450496641301    1.51234786019595   -1.19857727171576
H          -1.83279603797358    1.65295628793689   -2.87984305647990
