    23
        -45.37568646  Gyration_radius:  2.34221597598 Dipole_moment: 6.316
 S          -1.10673134443469    0.84897957844242   -0.36192199928320
O          -2.53616850917675    1.45104886692869   -0.52089628167277
O          -0.93934003021298    0.37030308881516    0.99631311477384
O          -1.01521187334921   -0.29241353284902   -1.30471453244623
O          -0.15972481522632    1.88632007887069   -0.70758653153460
O           1.49802899321638    0.97354624542243    2.12353749833586
H           0.57302873914924    1.03026710367704    1.82757875509189
H           2.02704084582866    1.26130155311922    1.37111255326686
O           0.73013452194514   -1.57564733816680    1.90333365587185
H          -0.15723522128154   -1.19339648425668    1.79332749210270
H           1.23482582262158   -0.82082613787951    2.27414641274859
O           2.33913818015214    1.25524419369209   -0.61891676509139
H           1.39657832163251    1.57614767323103   -0.65981587940217
H           2.83318758851774    1.81543357333178   -1.21942930590563
O          -3.49011062654983   -1.00867032918316   -0.79716537756773
H          -3.98716217004527   -1.15463334870141   -1.60518325032867
H          -2.54396397934849   -0.99754539844833   -1.04746710500004
H          -3.12208941740251    0.67178316905466   -0.45706006782447
N           1.30854888773717   -1.24184345793119   -0.61515247931676
H           1.15184307464711   -1.49617571366606    0.42490239080040
H           1.91952701897800   -0.40081362739232   -0.66626712754340
H           1.69014078039555   -2.01757061911449   -1.14561606230164
H           0.35571521220531   -0.94083913700125   -0.98705909777297
