    23
        -45.36135120  Gyration_radius:  2.46886684339 Dipole_moment: 8.982
 S          -0.24003735336625   -1.26083040551961   -0.26365612846393
O          -0.63502589080236   -2.66369714810984   -0.31622387423007
O           1.05258132414176   -1.25110501416516    0.60075706631059
O           0.19295087687465   -0.80111331809779   -1.60476459797536
O          -1.21627743076743   -0.36557242615008    0.31460384759281
O          -0.32887519892984    1.85613447721058   -0.83484681139890
H          -0.76681398780046    1.06788374147159   -0.44862681894967
H          -0.01747976303333    1.55484547950225   -1.69194191208100
O          -1.83022598983183    3.24207959183985    1.06780840469372
H          -2.71738283623593    2.98069347892389    0.81445807816516
H          -1.25600227805053    3.00725430455542    0.32412138869580
O          -0.76920673330116    1.19231557096793    2.58686268232125
H          -1.10715385004552    0.51031541882082    1.98733438999858
H          -1.16964446717236    2.02615055500782    2.27835237199281
O           1.45993681028009    1.18243356051143    1.17294278950556
H           1.05126930650101    1.64041032194626    0.41749700082576
H           0.78415124101120    1.25453746318716    1.89513251012022
H           1.29865400778254   -0.28559077024277    0.86182969324066
N           1.29382896594527   -3.02351216467753   -1.86905727876956
H           0.99707731159993   -1.96880672901709   -1.99582503119701
H           1.23478178531784   -3.58028133203339   -2.71511120511700
H           2.20175482761214   -3.10534204668070   -1.42232739877926
H           0.48713933246221   -3.20920263942005   -1.15931917647025
