    23
        -45.37592511  Gyration_radius:  2.46699890893 Dipole_moment: 4.000
 S          -0.50950718558822    1.01576402699302   -0.62587678797065
O          -1.47482768284326    1.79133218585817    0.12433942974407
O           0.87240294267036    1.31816953380742   -0.27994880014382
O          -0.75960921996050   -0.42628068622727   -0.53325155810406
O          -0.64868555582804    1.39067438582210   -2.14758463047807
O           1.33476062942564   -1.29100220084962    2.75028852536495
H           0.49835478247632   -0.77629781065316    2.63132388938945
H           1.05533721615956   -2.19347393255698    2.91589333913744
O          -0.94424472012045   -0.13313917355895    2.08835064441700
H          -0.99703888682312   -0.42868799263740    1.15916947789883
H          -1.15983321093157    0.80329128657344    2.03404478230028
O           1.00794287675595   -2.11783593550132   -1.43984288526410
H           1.05774607630587   -1.96873076524215   -2.38539915525235
H           0.24275156021907   -1.57323969222072   -1.12589694212826
O          -3.22896705827925    1.87079426562356   -1.80805135070060
H          -2.80734575627355    1.85316049140584   -0.92186341553972
H          -3.51772736653984    2.77519132418056   -1.94945624853236
H          -1.61207960729806    1.50385144524211   -2.28589758608115
N           2.35305770354320   -0.69455025425516    0.36406050467426
H           2.03114278954767   -1.40211135116798   -0.33854080722356
H           3.35203869200953   -0.52880461858042    0.31860069262743
H           1.80274943739045    0.19661411023745    0.12208811662432
H           2.05158153399920   -0.98468865231441    1.33345077522577
