    23
        -45.37600598  Gyration_radius:  2.46616280316 Dipole_moment: 3.833
 S          -0.61126035106159    0.85546462836964    0.87135980166079
O          -1.18013872957693   -0.07127883427985   -0.11129111698052
O          -0.38127129226739    0.21151937680667    2.15334789036911
O           0.58359781561647    1.49498988111304    0.33732627500524
O          -1.65378558056136    2.00499693109791    1.08297262904401
O          -0.92035117229363   -0.17844860146115   -2.70591456702923
H          -1.14223266070713   -1.08463486623617   -2.92877848778074
H          -1.16882011948890   -0.07051886088166   -1.75528832115913
O           2.70386642559602   -1.52694392786888   -0.84267498920396
H           3.42378708331160   -1.38029798247268   -0.22680375457071
H           1.92241461446578   -1.77947280461730   -0.28687302989671
O           0.57653380546256   -1.88142106993361    0.68401632277515
H          -0.16922064825178   -1.42852474784297    0.24725704045584
H           0.59826398448519   -1.44360027757425    1.54479463619040
O          -2.84035615998254    0.56477330488102    2.96601631220273
H          -2.32306924099517    1.61728801265000    1.68259561915579
H          -1.93631910804921    0.20999339486307    2.82625742184695
H          -2.84537789899244    0.95034663734806    3.84495606261498
N           1.49437038109718    0.59482043537553   -1.90517175441888
H           2.02747321111192    1.25782554481378   -2.45615674254276
H           2.07151151539699   -0.23589643650302   -1.61328557608677
H           1.13895932296574    1.04631596734147   -0.99664359575785
H           0.63142482269525    0.27270430507372   -2.41201806589186
