    23
        -45.37611795  Gyration_radius:  2.46500812454 Dipole_moment: 3.237
 S           1.10435384997659   -0.38958820330763   -0.64817392478910
O           2.32701426469916   -0.27626221076483   -1.61777336291053
O           1.21830949214591    0.68934262752991    0.33240503364941
O          -0.08366309810092   -0.21349111912481   -1.47375696468842
O           1.16187255156983   -1.69617995698894   -0.00682992596461
O          -1.63131298697756    1.87862257904341   -1.79706661174372
H          -2.45081996703869    1.51975747292735   -2.14263855418332
H          -0.97920850989838    1.13946120014872   -1.83180729703779
O          -1.50931518796874   -1.69585618540484    0.22392975855195
H          -0.62761034343593   -2.03853620487073    0.44066256387482
H          -1.32142840728947   -1.18965587246390   -0.58389049718482
O          -2.27990943978958    0.05645890801701    2.03486835263699
H          -2.09963162889751   -0.64970877381946    1.35950778559359
H          -1.92851881227923   -0.27922436848659    2.86115807970678
O           3.77569750212232   -1.69497761058950    0.08944439641770
H           4.10654982522699   -2.52971965507724   -0.25005312821977
H           3.07506269545291   -0.63353808593030   -1.09836385504841
H           2.82660126726128   -1.83692466318961    0.29135834528882
N          -0.95109627951175    1.99638216751904    0.78001426959187
H          -0.82579271522823    2.88910156700412    1.24349620523978
H          -1.54403042079862    1.33592106074875    1.34624611678354
H          -1.36091659027928    2.11294280929215   -0.17782249936819
H          -0.00220706098385    1.50567253779498    0.62508573381931
