    23
        -45.37619050  Gyration_radius:  2.2422042813 Dipole_moment: 3.652
 S          -0.17260903138637   -1.05198986533549   -1.05975605284165
O          -1.52033450084561   -1.32858906763771   -1.54095959009013
O           0.01121954831365    0.50396301257698   -1.34188513177746
O          -0.10465254704588   -1.18041301847071    0.40116413073489
O           0.88510662938882   -1.75114945160565   -1.73794280182609
O          -1.67915962657949    2.06473131510272    0.27329674696016
H          -1.26616307400956    1.92953572616393   -0.58996846245805
H          -0.94203652944095    1.91982758056344    0.91767364209519
O           0.36642835125330    1.11735596636099    1.66060307195639
H           0.23882333894097    0.21796674042667    1.29042491842246
H           1.20038449516889    1.42129394110419    1.28654743156012
O           2.67631408862982   -1.55491023295886    0.16347777466374
H           2.09340691354443   -1.75462342104669    0.90227639855162
H           2.14317923455513   -1.78871398368832   -0.62950552362711
O           2.39696265140219    0.98876702965084   -0.34173354375284
H           3.04397953519092    1.24321166315964   -1.00213062163781
H           0.91730894620309    0.74254641977497   -1.02109969402122
H           2.62125123227097    0.04915067486901   -0.08467407656915
N          -2.62934674424301   -0.35693746982603    0.51513665224379
H          -3.58839923431806   -0.55859860069794    0.77709538708881
H          -2.33453316271370   -0.78388648785934   -0.44715824345336
H          -2.41255615631287    0.69451968584596    0.46103584066939
H          -1.94457437805321   -0.78305814636698    1.14808173697541
