    23
        -45.37041088  Gyration_radius:  2.38912276113 Dipole_moment: 4.779
 S           0.35926321783058   -0.69250049146665   -0.55841920885485
O          -0.53853960055856   -0.22688448144091   -1.75155612036362
O           0.37493022317108    0.47012152496058    0.38399876107443
O          -0.30634786561204   -1.80919979614978    0.06950497615165
O           1.68344693243185   -0.97808699509560   -1.04538853884699
O          -2.30898984226617   -1.47718439469158    1.73186510252304
H          -1.74714017087037   -1.89118907581069    1.04039869897424
H          -2.63108928690499   -0.65879086453596    1.29549928916478
O          -2.30430628671499    0.77238914783109    0.28815520560136
H          -1.32963025934911    0.79921105086968    0.31149833008828
H          -2.52702579915635    0.62686855175557   -0.63471480518138
O           3.06903134325826    0.81257910168110   -2.38791562313739
H           3.28907983802621    0.40571022326322   -3.22754628574344
H           2.67802734688454    0.09651245685966   -1.83745904470667
O           0.73435335857734    1.99546230472139   -1.88621209734834
H           0.78030547166778    1.94202184231358   -0.92262003251131
H           1.63528306140488    1.75277803719478   -2.19736488801321
H          -0.12305311885042    0.64914547488848   -1.99873942192620
N          -0.14121130175171   -0.51139685834763    2.70730942436414
H          -0.19847114882882    0.17689940270412    3.45119456575233
H          -1.12543930462386   -0.94730527580266    2.45373038911470
H           0.16524461406447   -0.05462211404985    1.77448323576933
H           0.51227859816656   -1.25253877164514    2.94029808805945
