    23
        -45.37136262  Gyration_radius:  2.46250670247 Dipole_moment: 7.526
 S           0.88930465148877    0.34413332012347    0.33227136236611
O           0.04151854645394    0.76224908291525   -0.80433179397580
O           2.11979343447349    1.29126404153689    0.34117879740081
O           0.19141176461296    0.46861236438831    1.59085639140196
O           1.40321866185248   -1.00608923615695    0.08067367959030
O          -0.53864101570649   -2.13487171940678    1.54948738559007
H           0.32835163285797   -1.99987112908745    1.12907434508469
H          -0.71254293041630   -1.26131154519046    1.92768091088200
O          -0.56845127819193    3.33140247948387   -0.41604390890223
H          -0.17738526499692    3.77696538297008   -1.16966088670732
H          -0.45184193288514    2.37176207329950   -0.57586939099738
O          -1.96071966506406   -2.85945806874517   -0.54180525475833
H          -1.55221148300578   -2.57851765645348    0.32013058894581
H          -2.06984962343135   -3.81003008060932   -0.48276985333413
O           0.94804868730188    3.05210679425030    1.79679555443943
H           0.33916387968145    3.40002829328506    1.11325119754409
H           0.49107070296127    2.28049951673108    2.16582912837524
H           1.84420862209707    2.07413202727247    0.90791258574714
N          -0.12408759939195   -1.53094076156115   -1.90494379571368
H           0.69629307718346   -1.63597286768553   -1.24788754164900
H          -0.92442640267910   -2.10935675106960   -1.52891475508756
H          -0.30592320662804   -0.50257525085293   -1.70703115286277
H           0.09369675142694   -1.72416031943803   -2.87588358340648
