    23
        -45.37691832  Gyration_radius:  2.38490875194 Dipole_moment: 4.466
 S          -0.14337267055807    0.88820547311133   -0.16324107538790
O           0.86643153007972    0.77088599531568   -1.20785081799448
O          -0.90704315995371   -0.37108650487031   -0.04800053052032
O           0.68468582133869    0.99779010275456    1.16896700175347
O          -0.99897094911782    2.03829941758328   -0.27565087688891
O          -2.99716859738664    0.99668052540978    1.08346075194777
H          -2.73184997996496    0.10910348370788    0.81560960143581
H          -2.48019766481505    1.56852583292947    0.48031222518895
O           2.73334996957956   -0.56106957841506    0.11089245396767
H           2.24154648500065    0.06803500439077   -0.46082195560680
H           2.63341792833419   -0.19870574864616    0.99583478039165
O           0.71205620022066   -1.10094930544973   -3.08763969642016
H           0.83593561541936   -0.29879850196590   -2.53338294866107
H          -0.06975145423065   -0.93770164405927   -3.61737139525472
O          -1.16360976622798    1.59867812789014    2.87915678824296
H          -1.19695223363364    2.55609160096540    2.93837339074186
H          -1.96248435128675    1.33508823026851    2.35170872311317
H           0.02150595701960    1.21655903832358    1.88224149784021
N           0.78888766984075   -2.18396409084565   -0.65351513029114
H           0.80572619356050   -2.07417729792741   -1.69223489581551
H           1.68117091547704   -1.76388643949151   -0.27875458201428
H           0.00298834399866   -1.51050581513160   -0.32833762325639
H           0.64369819730755   -3.14309789584533   -0.35975568651033
