    23
        -45.37432791  Gyration_radius:  2.32580884076 Dipole_moment: 1.828
 S          -0.39178277507088    0.01856056593987   -1.11259757125429
O           0.97108923800557    0.40610939589487   -1.40042081577880
O          -1.13581041708677    1.07579390891953   -0.42021944268932
O          -1.10101823320129   -0.23943956076445   -2.47856089965510
O          -0.44217355864240   -1.22527027158065   -0.34099168977217
O           0.91956731537475    1.82004233909003    1.07008944695936
H           1.55674009422590    2.04884245305353    0.38732394363412
H           0.07984639844243    1.67778266473147    0.58212159294294
O          -1.33984523033252   -0.46044552730754    2.15477856327304
H          -1.64447189165535    0.43786337123518    2.01262509750123
H          -1.30189496209575   -0.85993752153424    1.27377318018994
O           3.18539173436957   -0.78169520711275   -0.54067853519173
H           3.41651702107621   -1.47952415302567   -1.15543634693825
H           2.44380066923226   -0.29026545070209   -0.96062504871737
O          -3.44113407738321    0.23575519005016   -1.34273537057222
H          -2.05591510721702   -0.26746744139311   -2.26148974172567
H          -2.74604753940766    0.66027341630495   -0.79933282525822
H          -3.97284855903190    0.94465421826100   -1.71133547291458
N           1.42049846258397   -0.76380072949962    1.44325760276570
H           2.31930203521084   -0.92880634980254    0.94452017901730
H           1.26227874260689    0.28192921290911    1.50660520699268
H           0.65185057378381   -1.10491063148856    0.79546933713625
H           1.34606007618646   -1.20604387217360    2.35385960004965
