    23
        -45.37254655  Gyration_radius:  2.34385832481 Dipole_moment: 5.872
 S          -0.18377049435509   -0.84214359754031    0.50412787472314
O          -0.29784168903862   -0.95458462559100   -0.93106755070723
O           0.71098008793920   -2.05373746601101    0.96060418907476
O           0.58031107387954    0.36333748017077    0.87722841281862
O          -1.44288628586609   -0.91905593508940    1.21913646433826
O          -0.69813158404603    2.27521429259549   -0.64436275732652
H          -1.59461979207891    1.88700128797231   -0.68283991220400
H          -0.25811135647567    1.78549177922572    0.06852968926305
O           0.52213166445641    0.97224843991161   -2.56576528207977
H           0.11417951757123    0.13621125862954   -2.26301049689244
H           0.03152906770705    1.65522335433802   -2.03401036408137
O          -2.76635925171393    0.52288222652955   -0.64113362972394
H          -2.57210415015800   -0.04184389331223   -1.39335310585031
H          -2.45617095784212    0.02172901894971    0.13287706202171
O          -0.32135338084660   -1.88730289001896    3.38204455051640
H          -0.82848998150368   -2.62899689806459    3.72037350667137
H           0.55463086079578   -2.11638298661666    1.92658591820177
H          -0.92216421783373   -1.39039508899215    2.79005335529597
N           2.41431554738395    0.64530051850310   -0.88614879081261
H           1.71761200515756    0.83627280725750   -1.73331895215958
H           2.93262888121517   -0.21533686891682   -1.02781327240204
H           3.04023384024204    1.42691429628388   -0.72140294217380
H           1.72345059541366    0.52195350978656   -0.05733396651310
