    23
        -45.37376549  Gyration_radius:  2.33172453338 Dipole_moment: 1.663
 S           0.93837474063205    0.65203906509734   -0.00073995282408
O           0.00017210857436    1.39824881581883    0.82940256156858
O           2.22631023292272    1.52859487683078   -0.10220273576828
O           1.31879437159887   -0.61735389618423    0.62855044453932
O           0.40938579423762    0.43597980076377   -1.33503216076209
O          -2.00529042521048    1.09145807330857   -2.18393736331915
H          -1.97989145302033    1.99817837567345   -2.49273913369125
H          -1.06924000726569    0.84850970945810   -1.99162163546023
O          -0.75582656462395   -1.94441622491712   -0.33274854742815
H           0.05585523741093   -1.59598137940573    0.09580447558129
H          -0.61054969386581   -1.79664870094984   -1.27220415232083
O          -0.80087172072148   -0.46153385755370    2.70176853725043
H          -0.38060618172284    0.30582910492862    2.28809229126664
H          -0.17374794079667   -1.17868455969493    2.58773995177638
O           3.70234638409637   -0.63380368362280   -0.47344591111476
H           2.92877827543836    0.91346433749556   -0.39949269667152
H           4.39445757472355   -0.79344592886748    0.17231806176690
H           2.86184310006396   -0.91355330721206   -0.05717980262963
N          -2.25566874274864    0.15419250086054    0.27899022488251
H          -1.45356700185407    0.75380870982376    0.61772467995689
H          -1.82080916025266   -0.80164729417864    0.12492125048446
H          -3.00016064270386    0.12000788266917    0.96783429508507
H          -2.53008828495591    0.53675755984836   -0.65180266218911
