    23
        -45.36973561  Gyration_radius:  2.45040288186 Dipole_moment: 5.156
 S          -0.97791774815582    0.88833137592045    0.29217164447176
O          -2.13506188948422    1.59428188408968    1.06952386998008
O           0.02203546599762    1.87412913552640    0.00064984472107
O          -0.46687520530333   -0.18692672559370    1.15446965643447
O          -1.57076856387433    0.29163795093760   -0.92156543019570
O           1.91473955467863    0.14360586298399    2.33339475196724
H           1.01040289757830    0.00048608790814    1.98830626131926
H           1.84467448706815    0.86053358661214    2.96584324654515
O           2.40106393981036   -0.84398491015715   -1.83362978905006
H           2.37300802792912   -0.40049937183311   -2.68308610483017
H           2.58198343963025   -0.11519720884595   -1.15820963590588
O           2.58628679364672    1.07380082072315   -0.12574025237877
H           2.61176985959190    0.70112661164096    0.77711504342764
H           1.71551197218807    1.51461621342670   -0.17152739045886
O          -3.86949632971717   -0.23212131054340    0.21139433130008
H          -3.09526421542383   -0.18531720982897   -0.38868469757340
H          -2.87987985889436    0.96165011098633    1.04017825845447
H          -4.60608093294097    0.16322054874464   -0.25988597519057
N           0.11586605947959   -1.66520981657558   -0.87631325151727
H           1.06854715478499   -1.41287226718489   -1.30672185770740
H           0.09734402820002   -1.36783676860728    0.13221405040540
H          -0.62429335821162   -1.01238298854986   -1.24260537952794
H          -0.11759558857995   -2.64507162177023   -0.99729121469086
