    23
        -45.37037525  Gyration_radius:  2.35693037963 Dipole_moment: 6.203
 S           1.25869773853378   -0.34454925558574    1.03912706357438
O           1.48757295479594    0.41110475143953    2.24557980688575
O           0.09532040894070   -1.23362406058499    1.12753295111558
O           0.81458340099034    0.77382150576756   -0.02981551390097
O           2.41035477353039   -1.01467891191256    0.48366218543754
O          -0.32605835069429    2.25562026408630    2.22289469851601
H           0.04683474214168    2.86570660731867    1.58331920071076
H           0.39478241210786    1.58664133051099    2.37173760214476
O           1.46952240459670   -2.64001751338899   -1.30950866366357
H           2.23806523776749   -3.08531913455633   -1.67139735714559
H           1.80056825337014   -2.12386419910350   -0.53152365155115
O          -1.99382770941295    0.82989371839654   -1.52568172931877
H          -1.35295310139429    0.18001381687623   -1.85962130640535
H          -1.60705921647617    1.69055864650222   -1.70017557280848
O           0.27669049643646   -0.55172176061219   -2.31465247407024
H           0.60572066300753   -1.43093542159442   -1.98521459719233
H           0.67028857225690    0.29490408390304   -0.86870851358635
H           0.83976870336225   -0.32066679200274   -3.05618745035537
N          -1.86468675514636    0.37782508558347    1.16062479173992
H          -1.40121200754237    1.21843087522648    1.60385620629780
H          -2.06839003847171    0.56312381188772    0.15637481481157
H          -1.09789597150793   -0.39840211234652    1.19113058476543
H          -2.69668762112749    0.09613465393612    1.66664691434522
