    23
        -45.37164927  Gyration_radius:  2.36926233909 Dipole_moment: 6.472
 S           0.39053502134046   -0.46772263778303   -0.79065504143626
O          -0.71802132988795   -0.43730791490492    0.32876865247081
O           1.50749303865319   -1.22957526661109   -0.29454096099447
O          -0.28845344053877   -1.05334812979428   -1.94226545633968
O           0.72668763691085    0.94229414687224   -1.04595236121420
O           2.39801607544335    1.17937327055717    1.02181347446630
H           1.85018325124846    1.24138728412303    0.21588343419489
H           2.95095525190119    0.40499930144249    0.88426264459426
O           1.69821523994346   -2.27626234833832    2.14720370280963
H           1.30130798980702   -3.14795614876127    2.12770734478575
H           1.72884080473589   -1.97151200189736    1.21644416188016
O          -3.01241553642260    0.84535663911501   -0.32629116758147
H          -3.75797920037768    0.26241257831523   -0.17358523161338
H          -2.23124625611427    0.39812058548419    0.05805014875300
O           0.46094169876054    0.08873858425336    2.48044814186711
H           1.18837805042516    0.65594338859459    2.12972038093183
H          -0.27706129070667   -0.20326486434511    1.24590990806178
H           0.88514864569165   -0.77746113786394    2.64948732218266
N          -1.39928011108168    1.14795999002581   -2.42976014884275
H          -0.53458787666794    1.48141078900906   -1.91992702211780
H          -1.10452845524264    0.10599625969259   -2.46805980633723
H          -2.21479452631740    1.22002229840691   -1.78517800735070
H          -1.54833469183162    1.59039534436056   -3.32948412313918
