    23
        -45.36711355  Gyration_radius:  2.62647082857 Dipole_moment: 3.907
 S          -1.33702530932026   -0.74087658362364    0.32234137384530
O          -0.82286370541666   -1.57527112594775    1.38930983325811
O          -0.92717436651516    0.66558816567459    0.47174742366836
O          -1.02677820936852   -1.22319355968866   -1.01524041158400
O          -2.90833309226607   -0.75101227140251    0.41413188453321
O           1.38482129595360    0.05389085998346    1.62183959470567
H           0.58077196292474    0.50330983524336    1.30068833080173
H           1.06951610210993   -0.84076563741812    1.79624400181609
O           3.24520811236304    0.43091756126166   -0.22335949490028
H           2.55563027759731    0.22540708837929    0.45567181626607
H           3.84761042163720    1.04394852404191    0.20095664346169
O           2.21059150784110    1.10189079881489   -2.54445069240440
H           2.62076701311337    0.90061527956599   -1.66303379779697
H           2.49493922072719    0.39170388321487   -3.12283929514873
O          -2.81018912269476   -1.11777404335388    3.04521048020512
H          -3.17525648498193   -1.94841464990833    3.35817424376341
H          -1.92798583807265   -1.32844310833362    2.67442267476059
H          -3.11818136510514   -0.74461268668145    1.37038811628850
N          -0.38911812909919    1.02395882980123   -2.01274550943608
H          -0.65435292170623   -0.00672039328117   -1.90958588850427
H           0.63451792266870    1.11673913111169   -2.26716961370840
H          -0.99230343888869    1.52698071795158   -2.65364018304506
H          -0.55481186350129    1.29213338465720   -1.00906151085436
