    23
        -45.37691832  Gyration_radius:  2.38490299333 Dipole_moment: 4.466
 S          -0.38470017836771    0.44690325462497   -0.69889763659918
O           0.95491779709741    0.05054816544460   -0.21876564049811
O          -1.22126087509769   -0.88356517838664   -0.74790171977682
O          -1.05880880939081    1.26092589084122    0.30485017451073
O          -0.34552451762563    1.02126274338020   -2.01645117659324
O           0.29044810269474    2.47479248112184    2.24573558022006
H           0.87164556932487    3.12687847317646    1.85140877074684
H          -0.31584557394881    2.18376262604508    1.52900151426290
O          -1.90501190512191   -0.63932549910053    1.93927707163874
H          -2.09996932871155   -1.34787599285110    1.31929656970864
H          -1.82604554577448    0.15836145995019    1.37186225483024
O           1.77740999508661   -0.31648381951543   -2.80878886164755
H           1.07228276212702    0.35984383592133   -2.74985600636552
H           2.09516350056572   -0.37316002391183   -1.90011924269955
O          -0.19500930862433   -2.06521354534724   -2.81011218734378
H          -0.86224086554726   -1.40036181686037   -1.52281852204959
H          -0.72576190811840   -1.82179087435434   -3.57193255738908
H           0.64593531518949   -1.54372991382165   -2.89198455285252
N           0.67045627978613   -0.16247772773263    2.31168309154138
H           0.89530314838453   -0.15722045620877    1.25042242293693
H           1.32077134742855   -0.71574319212716    2.85785435275059
H           0.67136970273978    0.84766788751996    2.57792956352063
H          -0.32552469409822   -0.50399875781115    2.37830672714860
