    23
        -45.37159139  Gyration_radius:  2.31519315394 Dipole_moment: 7.187
 S          -0.83431011212817    0.58600568570530   -0.13723847744189
O          -1.97011718059594    0.39097492197519   -1.02990503073048
O           0.39943527112849    0.04707021115738   -0.72899964783067
O          -0.65452869972168    2.08964657734366    0.07022766360287
O          -1.07779869127260   -0.06589151446050    1.15860901743699
O           1.44815082168322   -0.14016753211186    1.99601919569518
H           0.48410128381079   -0.17393080803559    1.83844287347401
H           1.84736907945466   -0.52612432984470    1.21157608938908
O           2.45441397682950    1.70876035116551   -1.11719538857862
H           2.19843436070286    2.29635262470934   -1.82986409781057
H           1.74494184309371    1.03659650005533   -1.05191172468728
O          -0.07592687204115   -2.49348721123638   -1.19100513721650
H           0.19311502013870   -1.55815155000679   -1.01401809008781
H           0.10010974409216   -2.64234744575212   -2.12175268410476
O           1.51706301024455    2.43681798021453    1.30161287753233
H           0.19815674022844    2.29262766750956    0.63033287229809
H           1.60132076990366    1.57946861655573    1.77787181086651
H           2.09732396543682    2.34896356171598    0.51749027926753
N          -2.38098773192336   -1.89930887467224   -0.05025765178865
H          -3.21970726648659   -2.43999985802601    0.12941305427614
H          -1.60027327614743   -2.43449360563502   -0.50424925800924
H          -2.50424889164639   -1.01492920604159   -0.64877961924428
H          -1.96603716482382   -1.42445275231947    0.79358106365522
