    23
        -45.36587593  Gyration_radius:  2.29265215115 Dipole_moment: 0.386
 S           0.59176038406143    0.65762573754779   -0.64442798135212
O           1.14347897119530    1.73528582540594   -1.61690639414554
O          -0.77795651435096    0.32668485901841   -1.06574493451923
O           1.45814488711020   -0.50785504947530   -0.76529510908042
O           0.58597112210031    1.19706524530824    0.70990231541544
O           1.86859060151669   -1.85321473443669    1.39376737092811
H           1.82184406364371   -1.22637845181195    0.62132382526793
H           2.58653465028167   -2.46124320315711    1.20763617085294
O          -1.49833941638760   -0.14593865057764    1.45472630918481
H          -1.79546937530014    0.00553544611136    0.54135453283952
H          -0.67359032283927    0.39969719255910    1.47715297979373
O          -0.57514578588591   -2.23191168584684   -1.34054586661215
H           0.35810618616142   -2.23798842150626   -1.58461088294632
H          -0.79688286381919   -1.26171794090937   -1.36482750852666
O          -0.57807798130486   -2.46246359925421    1.16730466637619
H           0.41995339293434   -2.31940567250064    1.37513374131232
H          -1.03248402258885   -1.54041998669086    1.41167385219331
H          -0.63353479762481   -2.49146155492648    0.11606380537038
N          -0.58426852057868    3.42374622981345   -0.60661810423333
H          -0.33711646573885    2.93022432790049    0.24725016237687
H          -1.50829227158247    3.12137427833178   -0.88663730240784
H          -0.61139910249757    4.41770555807640   -0.41910498947132
H           0.56817319148893    2.52505424099518   -1.42857065860931
