    23
        -45.37164929  Gyration_radius:  2.36955866449 Dipole_moment: 6.468
 S          -0.98872132636301   -0.10585861377706   -0.09015533070337
O          -0.59542123244772    0.41599042526481   -1.40883466464644
O           0.35018024183473   -0.59261332840319    0.58339587371643
O          -1.57766569304742    0.89829852357062    0.75774123683799
O          -1.77530764089373   -1.32721607567961   -0.23165399228153
O          -0.50518404913154    1.85044464212573    3.00204342722490
H          -1.01422459677330    1.55579170898209    2.21834299636441
H          -0.77982134733099    1.28450299374473    3.72463388049530
O           0.17763665964487    2.80784334551983   -0.50990160155133
H          -0.59109848184464    3.05066356314753    0.01386672363860
H          -0.09249831285259    2.00248268276698   -0.99154290360341
O           1.67242312417271   -2.56346703081331   -0.72293488110438
H           1.32954572064843   -1.82630746669334   -0.17802837625608
H           1.84713089751061   -3.28613341618691   -0.11781382023078
O           1.56407579093402    1.47416863663876    1.32569909292259
H           1.26467303278506    2.09635910403902    0.62069980698066
H           1.02256137936191    1.70998831696630    2.10694555111523
H           0.90231219865201    0.23693581390711    0.89533738549035
N          -0.43350447513076   -1.97959977372411   -2.25391866486307
H          -0.31931699343783   -0.92864542666908   -2.28323133732084
H           0.45211773505891   -2.40112925046752   -1.90270133340899
H          -1.14542916160801   -1.98616780509148   -1.43658605405783
H          -0.76446346973945   -2.38633156915255   -3.12140301477876
