    23
        -45.36847192  Gyration_radius:  2.30658415748 Dipole_moment: 2.927
 S           0.19053666700009   -0.45323820817651   -0.89822181273984
O           0.54958900896640   -1.16116715573451   -2.22708751732117
O          -0.56799902962399    0.74518660401094   -1.23935840195184
O          -0.57784963055404   -1.36526055815297   -0.06504290447107
O           1.45620243549013   -0.09285743708548   -0.23710606209673
O          -1.21136304208165    0.10161527307882    2.01778762578560
H          -1.93354395280502    0.60091125046560    1.56949002792812
H          -1.00215474537455   -0.61301199487234    1.36968372331526
O           0.19537419379756    3.03580293604047   -0.16985512061180
H          -0.16212515343621    2.27357371768954   -0.68198572375005
H           0.90492318519405    3.40665213739054   -0.69766222592628
O          -2.83206226505201    1.09480254972107    0.17002915348566
H          -2.08207959326264    1.01932194241027   -0.45305270011573
H          -3.49025888595392    0.46585585825334   -0.13022415844118
O           0.88003603128254    1.39317854785465    1.66254570546525
H           0.60953482579339    2.19869725385170    1.10242340525994
H          -0.03691872463415    0.89474534461200    1.95031959690945
H           1.25371695299634    0.73945495892512    0.92561242541481
N           1.65521715912444   -2.99464744479283   -0.76256747029428
H           0.83362596056784   -2.88774561021438   -0.17518028957005
H           1.92039450040277   -3.97090811159228   -0.79316032543619
H           1.04388089229233   -1.96751523564848   -1.90261611626399
H           2.40332319985579   -2.46344662803827   -0.33477084456967
