    23
        -45.36847168  Gyration_radius:  2.3067441153 Dipole_moment: 2.920
 S           0.17277110505098   -0.25944974244093   -0.97532789406413
O          -0.87870407270341    0.76948353024695   -0.90749583419453
O          -0.22767244510457   -1.44666456970541   -0.23598801619213
O           0.36011576164708   -0.63005262955077   -2.46649373647998
O           1.44423094098070    0.27607991253537   -0.50130600052445
O          -0.30427717286467   -0.61688549506087    2.25328549317624
H           0.67180806862356   -0.62996281476377    2.39069346216956
H          -0.41098671732121   -1.07845122329161    1.38716329936793
O           1.41158388231460    2.58624271049242    0.77768763510519
H           1.41796353227739    3.29913933852591    0.13634326123096
H           1.58124315053342    1.75727806426846    0.27260422059048
O           2.30941877056012   -0.74895566132256    1.83025241211880
H           2.13133722083805   -0.37747635891001    0.94334041730003
H           2.62629464281978   -1.64188008429319    1.68502566646800
O          -0.87821955015394    1.64805923235008    1.41127088920089
H           0.00693220629221    2.14627737762811    1.34712155070419
H          -1.01492836060592    1.33133474170074    0.41570376361405
H          -0.67014071533748    0.71051401048602    1.91097492022000
N          -2.08899072069346   -1.48239923995460   -2.39455986564142
H          -0.53886598161324   -1.00029122923777   -2.70009575895379
H          -2.58375188477833   -0.61647350454467   -2.22064341373684
H          -2.70978604795822   -2.12704629364325   -2.86725918570416
H          -1.82737564280132   -1.86842009150303   -1.49229727576366
