    23
        -45.37093080  Gyration_radius:  2.33567253674 Dipole_moment: 6.809
 S           1.16544495152953   -0.20609370282707   -0.20262810009963
O           0.18367184381426   -1.20839566003790    0.23269355829608
O           2.13705888648765    0.06739250561657    0.94778180513013
O           1.94332441391221   -0.69105969400781   -1.33538954302035
O           0.46451671184985    1.03968470019048   -0.55115369855575
O          -1.30569689923185   -0.57580901258201    2.30507209666612
H          -0.78052980392038   -0.83397400963351    1.51294996837788
H          -1.72733004552272   -1.37752365103291    2.61656005150512
O          -0.98475586067504    2.21721354158561    1.38150580215073
H          -1.57781158495266    1.49592585318382    1.61969265771524
H          -0.49257969390144    1.90363833162660    0.59890787105986
O          -1.22895440411537   -1.79719095473050   -1.89882103244685
H          -0.77204399830275   -1.60389731307763   -1.04193576743165
H          -1.04941266289842   -2.72141573592014   -2.08162066205709
O           0.83054179076886    1.02045643040141    2.91015550822060
H           1.65814891542537    0.46771323708530    1.76214451915983
H           0.30793567050098    1.73891725681995    2.48548480810892
H           0.16550524144101    0.32789288018875    3.06293341468592
N           0.19511223410881    0.16508446854806   -2.93513462029688
H           0.05758166089594    0.85780275570999   -2.15474118380775
H           0.23129627698239    0.56653594735706   -3.86544556506802
H           1.10797086652408   -0.26703445101130   -2.56482665342146
H          -0.52899453070271   -0.58586371347686   -2.80418521487862
