    23
        -45.36847177  Gyration_radius:  2.30669491592 Dipole_moment: 2.922
 S          -0.19016149186862   -0.35212417237501   -0.94248779182220
O           1.17636243913595    0.15493415912939   -1.00265888432940
O          -0.55242619498739   -0.85972755798768   -2.35920410609198
O          -0.32303217161397   -1.44822370438275    0.00478653456971
O          -1.12966270937988    0.73257658949776   -0.61129889541200
O           0.50675841274363   -0.40286467111520    2.26514769927873
H           0.09034392165971   -0.93155165964999    1.54286817499729
H           1.46740518363679   -0.45503533124329    2.05013021337086
O           1.64210388890010    2.56634703493636   -0.03183960718574
H           1.60617034529597    1.68885453212718   -0.47879497722721
H           1.43199416781147    3.21940978380947   -0.70187626456514
O           2.79607534908055   -0.70786807853047    0.96388117526651
H           2.32101879101086   -0.40561560825085    0.16430478699903
H           3.02328117374643   -1.62568545711300    0.80626049186457
O          -0.28837346370834    1.80751528040906    1.45883621808152
H          -0.77614183069197    1.41327350829292    0.61219872286911
H           0.06708923782817    0.90705421176660    1.94367366797230
H           0.52474881068751    2.25146525562611    1.03740789018660
N          -2.83125447945106   -1.57155227061726   -1.34433664091432
H          -3.21392699259594   -0.66834697934300   -1.09399691086412
H          -3.59265582545305   -2.21967261839583   -1.50118238697177
H          -1.48244551316373   -1.20077377758688   -2.22313157148872
H          -2.27327100863276   -1.89238848900563   -0.55868753860050
