    23
        -45.37824528  Gyration_radius:  2.39120002054 Dipole_moment: 5.934
 S           0.71634791264335   -0.13845712072777    0.61371677815954
O           0.79168317387936   -1.52595222636232    0.20613257109536
O          -0.27933808493554    0.08369056682679    1.65581501008090
O           2.10014760047496    0.29086776307740    1.15502103423534
O           0.42173393758955    0.71900541254449   -0.55668894994050
O          -2.08407843002835   -1.54590345606750    0.71475029237350
H          -1.62823354391897   -2.37993535716723    0.85480335220816
H          -1.51832487272889   -0.88353440679955    1.18337651130680
O           0.60068314304305    3.28660877323525    0.09450666240864
H           1.35813606508561    3.62525720865811   -0.38602934814067
H           0.47759428352906    2.36190681642167   -0.21007188783779
O           0.44383279310594   -2.52442298437224   -2.19641765709115
H           0.50488889686959   -3.47858956294568   -2.12971080857040
H           0.74852581545159   -2.17137561721047   -1.32672724890318
O           1.11359114988739    2.22473573671995    2.51703536235249
H           1.90261514519842    1.07828129076477    1.74885845004529
H           0.90386640419751    2.83750482861136    1.78143542743673
H           0.34681513149154    1.63467237915140    2.58355112197582
N          -1.41761025777026   -0.69498815334133   -1.69382791299364
H          -0.86652921395211   -1.46543601384374   -2.13499098097371
H          -2.08584582395948   -0.27101526425087   -2.32773728465911
H          -1.86369631295260   -1.06750615206435   -0.80473169114191
H          -0.68680490223034    0.00458552914237   -1.34206879342620
