    23
        -45.37369003  Gyration_radius:  2.38674966882 Dipole_moment: 5.396
 S          -0.97793796574205    0.54438230928483   -0.38656871059147
O           0.39339361010913    0.11514655991980   -0.68455523615219
O          -0.99639494404866    0.72972535433857    1.19696194983197
O          -1.32264909128029    1.80667324837118   -0.97860976724782
O          -1.92911075587637   -0.52893976886558   -0.63893777599902
O           0.26790785991574   -1.50830961990359    2.04831227435111
H           1.16299068401146   -1.16111291366929    2.03615045629161
H          -0.31129157996829   -0.73630787020639    1.89265868162127
O           0.17552812865545    3.91277300069725   -0.42318220435765
H          -0.42546637501650    4.60609681381265   -0.14600126866101
H          -0.39247592514626    3.18663729642281   -0.76472053947049
O           1.17883461543370   -2.02453678157956   -1.97766544115568
H           0.90893220304402   -1.13717543415901   -1.64155932920905
H           2.13626624430654   -2.01493609507524   -2.01885137208717
O           1.24315720888129    1.96081425865473    1.05568522861340
H          -0.19953111359739    1.32145953499195    1.33236192761838
H           1.33560667924806    1.34826664879966    0.30670833401182
H           1.03510761711739    2.82517803787867    0.64134176155783
N          -0.65779872014850   -2.69319053100520   -0.16645547707713
H          -1.28523170309515   -1.83707753315805   -0.40735851321417
H           0.08765978999080   -2.70767385998764   -0.89705097597154
H          -0.23524168422640   -2.45369234409139    0.76036037582947
H          -1.19225480256503   -3.55420031147317   -0.13902437853642
