    23
        -45.37164946  Gyration_radius:  2.3692464181 Dipole_moment: 6.475
 S          -0.99321194139414   -0.09307640149562   -0.04030773138464
O          -0.67023802314135    0.51480394016042   -1.34114687305749
O           0.37691877215621   -0.63195749284900    0.52125521773156
O          -1.52366637153164    0.85464334178456    0.90550141159056
O          -1.79803886736211   -1.29756061163604   -0.21873297626443
O          -0.31399083317010    1.64241584727786    3.14366182318065
H          -0.86993636359290    1.40559866634149    2.37226036718495
H          -0.55269080419982    1.02960167475637    3.84034795329421
O           0.17317971393024    2.83617007589497   -0.32879795323915
H          -0.13077414344471    2.06690312284885   -0.84778783450406
H          -0.56220398697398    3.04588794639181    0.25386529695433
O           1.60279852936059   -2.51973766347869   -0.98601256181566
H           1.29947141629355   -1.81824984877703   -0.37458033721827
H           1.79756772751702   -3.28445682226430   -0.44176440355184
O           1.65168006787573    1.37320314073282    1.32764818572378
H           1.31705366408994    2.04357734375606    0.68544987221159
H           1.15915228192086    1.55763144836511    2.15372685206999
H           0.95438713310588    0.17155499639162    0.85484783100029
N          -0.57834199912049   -1.81883977871484   -2.35345656400678
H          -0.96115077161975   -2.16411030551256   -3.22623860818114
H           0.32150109242273   -2.26827463256383   -2.08149878337454
H          -0.45597474766755   -0.76899725315562   -2.31849083065455
H          -1.24349153545940   -1.87673072425495   -1.49974936369282
