    23
        -45.37729902  Gyration_radius:  2.3826047067 Dipole_moment: 4.760
 S          -0.02929709768434   -0.76184446335169    0.49298762642539
O          -0.48266536853857   -1.47051701470094   -0.68564640957653
O           0.44044459332637   -1.82154858278209    1.51512359164917
O           1.11612967098397    0.11227664626915    0.17855881145886
O          -1.10424266838906    0.02484033483856    1.10260065441937
O          -2.12244638455281    0.84371135548059   -1.16600458737701
H          -1.85028356979319    0.62791580268882   -0.24157143375879
H          -2.47285102140521    0.01469599990176   -1.50220024115709
O           0.56153697793230    1.70153679112766    2.30001911871918
H           1.19351174127546    1.47018681209447    1.60525898188219
H          -0.26902721341701    1.30727346908913    1.97157208732239
O           0.53820251355824   -1.41959864329879   -3.10079927113828
H           0.00660058490839   -1.98521102326440   -3.66288256369625
H           0.24287815180972   -1.59902560060072   -2.17643752020288
O           0.88470784029619   -0.50531932135954    3.71339749600403
H           0.86348673306662    0.41393947316928    3.34475218969396
H           0.10096534929585   -0.59422735036008    4.26001248914318
H           0.67599079038024   -1.36570394883754    2.37305756372202
N           0.35115749076668    1.03612621246828   -2.09548472486339
H           0.73705570247160    1.90230205133006   -2.45452484776091
H           0.80936273956797    0.73147433916854   -1.16967166518464
H          -0.67869809742767    1.10649640343396   -1.85689945981102
H           0.48748053156204    0.23022023751171   -2.74521788591454
