    23
        -45.37729887  Gyration_radius:  2.3826089515 Dipole_moment: 4.758
 S           0.25163842705796    0.00265885980849    0.87241006127950
O           1.54044008470004   -0.52108768992713    0.47034881010731
O          -0.78308912188854   -1.03427986519990    0.86773668724567
O           0.40118988252104    0.53679427446405    2.31482798717327
O          -0.15810786082158    1.12473863467316    0.00740629672733
O           3.12169328272088    0.34821979720792   -1.43288629075302
H           3.89618159797931   -0.21557609596915   -1.46012593597793
H           2.64102065327189    0.11104841836430   -0.60432649064615
O          -2.76741926900809    0.69975609460352    0.59123289979655
H          -2.11207078217581    1.28701568034385    0.18947096483335
H          -2.28847133278729   -0.14945893183962    0.64209324796273
O           0.04313238387098   -2.19285108725455   -1.32972850296101
H          -0.38810695089097   -1.86351855272822   -0.50460833674749
H           0.87563769858916   -2.56154869518959   -1.02292906562671
O          -2.01342575540677    1.11513106583701    3.08733469209443
H          -2.33468064272603    0.36710837832763    3.59544654982526
H          -0.49504207789898    0.82491666977269    2.65129442846960
H          -2.46714270025580    1.06888774892463    2.20789697644871
N           0.60180586137476    0.21826523121013   -2.27530472028307
H           0.19720533197064    0.57927670601859   -3.13208484579392
H           0.35260548313993   -0.79502679715089   -2.09194980194552
H           1.64082587577423    0.31595933458170   -2.24373372424359
H           0.24417993087676    0.73357082110325   -1.39982189699045
