    23
        -45.37729917  Gyration_radius:  2.38274855517 Dipole_moment: 4.766
 S           0.21048680086700    0.05530078287009    0.88113733830342
O          -0.78257623055329    0.81715998728189    0.10122281062485
O          -0.19538336869651   -1.32642217730173    1.03289729348473
O           1.53015409536668    0.16978731449057    0.25562307372044
O           0.28589359483075    0.67122879275531    2.29643161258091
O          -2.40629697152057   -2.46806197740055    0.20501058958280
H          -1.65735451785043   -2.03591050602128    0.68062013504242
H          -2.37438762190201   -3.39463058006917    0.44767733461678
O           1.09356644697085    2.62922955747252   -0.62767489952877
H           1.52270049719014    1.76287068692710   -0.49198074606392
H           0.15307528894886    2.40510278234744   -0.59885475193979
O           1.14590883073582   -1.75487009602578   -1.47698303357842
H           1.43220442641959   -1.00876080945365   -0.89683672604784
H           1.13001806085123   -2.51267577365866   -0.88659157995033
O           1.36825599811664    3.01290923053881    1.97024410483649
H           0.65066965513958    1.59962089005132    2.23006973458604
H           2.30436554496700    2.92006890447948    2.15986622242568
H           1.28959364566150    3.07813613768467    0.98488410355572
N          -1.36173389256843   -0.92786014636075   -1.69573487809117
H          -1.77006745797025   -0.64081865572231   -2.57831831163156
H          -0.38438235354680   -1.32365213165371   -1.79858805374301
H          -1.23544622365525   -0.10580910857924   -1.01151381923062
H          -1.94926424774220   -1.62194308467393   -1.18260758355552
