    23
        -45.37729933  Gyration_radius:  2.38318481198 Dipole_moment: 4.774
 S          -0.41046406131837   -0.80804494632247    0.03157854160413
O           0.95470128366420   -1.18410626869896   -0.34388376683097
O          -0.37538283548572    0.26735809344782    1.04001456662092
O          -1.19716057949316   -0.41719662568028   -1.11961214868258
O          -1.09950694322379   -2.03834653425942    0.66385735534041
O          -2.54025215184407    1.80408594221695   -1.49292255883411
H          -2.19977025819794    0.89553150780393   -1.31304662471380
H          -2.94289006746383    1.76857552440434   -2.36185762245940
O           1.25230126054856    0.71812370442248   -2.11796035898892
H           0.63636811335746    0.41864258176662   -2.79173931341158
H           1.29263647239608   -0.03612112502239   -1.48184771421715
O           1.94286519491590   -0.69032903114573    2.06433699011280
H           1.20090025045600   -0.08028860157293    2.17772893507398
H           1.89965753638519   -0.90327325586941    1.11241230693584
O           0.55776465990180   -2.90138335785925    2.47222931754750
H           1.16248671627602   -2.11752621886561    2.50725392849825
H          -0.52874908511592   -2.38795645660613    1.40631927720831
H           1.06298401414828   -3.61302376646803    2.07314532202177
N          -0.12240353895066    2.30734023041531   -0.50385872353789
H           0.51443428814183    1.84380232800426   -1.21230492850365
H          -1.07055719498956    2.41315290864040   -0.92825813007829
H          -0.23905902828005    1.56096154518820    0.26380266789577
H           0.24909597417778    3.18002183205195   -0.14538731859402
