    23
        -45.37719476  Gyration_radius:  2.34000267639 Dipole_moment: 4.181
 S           0.16127314087473   -0.31329769550919    1.09494713240750
O           0.86429880574000   -0.36230597878117   -0.18976443551607
O           1.21165793985195   -0.35595240101795    2.23057601349779
O          -0.59392663489885    0.93556610109280    1.21271299004723
O          -0.68504972157607   -1.48536016086544    1.27180979837918
O          -2.03513540497469    0.95733804982446   -0.97569714707941
H          -1.45354803306347    1.43276150623553   -1.57399233361008
H          -1.60641069516686    1.01632953791125   -0.08734301688339
O           1.13147153984748    2.29993699843972   -0.25038165955616
H           1.33185997437703    1.42747875144246   -0.62366186481519
H           0.35750759243880    2.10945976939479    0.31310865888471
O           0.41386772761895   -2.07816054723293   -2.11432147067388
H           0.68983615655540   -1.39953350740953   -1.45007599438121
H           0.97407263327576   -2.83912467760333   -1.95329362801200
O           2.54731107781273    1.86808641858131    1.94934975487449
H           1.78953127038853    0.45126785381005    2.14783355692959
H           2.18224543726815    2.17110171347566    1.08171623628099
H           2.23459264219541    2.49170068052638    2.60826151856211
N          -1.93779881860442   -1.68973180241367   -0.95887413679757
H          -1.51297474461507   -1.71605222273611    0.03085124181099
H          -2.77151631251941   -2.26029739068676   -1.04226198445992
H          -2.13134988867804   -0.66703608765592   -1.12542293376605
H          -1.16181569416998   -1.99417492880937   -1.59607629610053
