    23
        -45.36597304  Gyration_radius:  2.31913258585 Dipole_moment: 1.718
 S           0.89933126396437   -0.13863842308402    0.36464880398750
O          -0.40928935181147    0.04419238478538    0.98032857003261
O           1.10386203412614   -1.51693491713145   -0.04910427145617
O           1.06854745592180    0.79088350158046   -0.76423852521993
O           1.99358962034657    0.24813022776700    1.39540348621256
O          -2.12906481536710    1.38160990748808   -0.41643416128188
H          -1.67963020179015    2.25247870408662   -0.36944714522889
H          -1.63012513556090    0.83643626295367    0.25236790583712
O          -0.14119945876217    3.15825203525604   -0.38987924498533
H           0.43051661103632    2.36501864117915   -0.42084664927725
H           0.26323148913839    3.80603824389467   -0.96876775083287
O          -0.73903204588565   -2.10195042497541   -1.77426368890909
H          -0.32495664508308   -2.67557074853452   -2.42259407460175
H          -0.06200965608670   -1.96620540518698   -1.05783995472457
O          -0.89992095069688    0.38893481556073   -2.29920612545228
H          -0.97578817574304   -0.62425033749607   -2.20380182656131
H          -1.60262929213927    0.84324096223555   -1.53065889649720
H          -0.00962510935287    0.59468192318167   -1.84261238319908
N           0.95325347226795   -1.64091654926616    2.84687483446748
H           1.11087083607172   -2.34688769861869    2.13699562677841
H           0.05278605895965   -1.21958404793218    2.64185375724225
H           0.91175365852610   -2.08861638875388    3.75418358784243
H           1.81552833791695   -0.39034265898191    2.13703813582704
