    23
        -45.36597431  Gyration_radius:  2.31847459374 Dipole_moment: 1.679
 S           0.02662591019350   -0.54237530083092   -0.81579257754103
O           0.85243732639277   -1.16632093147643   -1.97271654497277
O          -0.31413863855554    0.81932352077027   -1.25792331436069
O          -1.16617375684598   -1.34402457191997   -0.59898045897008
O           0.85999055643292   -0.49371598569762    0.37974912757549
O           0.91730062691755    1.77836753732368    1.60954935790811
H           1.39523733768125    2.28396904433356    0.91680378382134
H           1.00777083822724    0.83448221799992    1.29881821374975
O          -2.50087550430836   -0.25234181592153    1.33659211709848
H          -3.42835093789214   -0.36238767604165    1.11621305328974
H          -1.99458000963718   -0.76342985521769    0.64947959582577
O           1.63966547348799    2.60405596171412   -0.81639800490776
H           1.50621765693806    3.35676261613565   -1.39435420771989
H           1.02505667387481    1.90741207370798   -1.12371123867475
O          -1.37257177653985    1.95798168216798    0.73975840359972
H          -1.06704266265191    1.61405726933227   -0.17035360601054
H          -1.89567029119633    1.16857232497699    1.11758487905804
H          -0.36180863095552    1.96681701376027    1.27357894079631
N           1.02542978032672   -3.23723961465623   -0.41123600612657
H           0.01929971259375   -3.34453287864193   -0.35369651921020
H           1.29017633333487   -2.58665470864695    0.32167045732678
H           1.46344321176749   -4.13299073762397   -0.23515381797871
H           1.07256078041284   -2.06578717555500   -1.60948162357704
