    23
        -45.36597373  Gyration_radius:  2.31868171348 Dipole_moment: 1.689
 S           0.47605515901469    0.08833628899945    0.85168271659383
O           0.91873380709625   -0.04783686916754   -0.53072019130497
O          -0.66061676153417    1.01950922997163    0.93615172225223
O           0.14828053877843   -1.20260443282468    1.43363692922412
O           1.61673156100801    0.74128407325208    1.67769792035499
O          -0.73036574819003    0.81657368232287   -2.32471155987317
H           0.01592876392463    0.41555844327573   -1.79838468880278
H          -0.66378572242027    1.77128262794923   -2.10777318736310
O          -1.76322091302914   -2.23681588003533    0.02117547718721
H          -0.97619442898732   -1.93259492154232    0.54826901973723
H          -2.33140765537990   -2.70038109100111    0.64011924527783
O          -0.52923031121324    3.02315039420796   -0.84448642997869
H          -0.46041026777567    2.39256571024724   -0.09958501606841
H          -1.07356381365821    3.74868521259545   -0.53531311935696
O          -2.40855168743043    0.13479845863411   -0.66478025757433
H          -1.85740611579109    0.55556858163786    0.08396885700807
H          -1.74665785630344    0.41358145603620   -1.55000624050743
H          -2.28110838067670   -0.86477036232467   -0.50730142581785
N           3.00621380085012   -1.32998446567000    0.94539710801288
H           2.35062178150144   -1.98242381675191    1.35974038503733
H           2.35667106758828    0.08620812185817    1.56457204120293
H           3.91892931318798   -1.76559499407859    0.89636390853006
H           2.67435385945401   -1.14409545758746    0.00428678622685
