    23
        -45.37469721  Gyration_radius:  2.38567279601 Dipole_moment: 4.760
 S          -0.80315305601686    0.60655223655715    0.46480649072154
O           0.20180597729328    0.45132899387816   -0.59318886913964
O          -0.19405290052119   -0.17224321252928    1.70988229143479
O          -1.01211096798401    1.97407662654030    0.85346463929478
O          -2.02537062414599   -0.11544605105592    0.13290052356077
O           0.74736144748472   -2.39263496310185    0.45154846572572
H           1.54617180578772   -1.99911969618959    0.09076138950946
H           0.37664188546945   -1.72053260600980    1.05495422710465
O          -0.19359455582583   -0.50757969049337   -3.00249919178559
H          -0.65741213803077    0.15642828546615   -3.51489267305026
H           0.06393151124991   -0.06461813831933   -2.15873635594501
O           1.02298219414648    3.42284670760226    1.71737834172817
H           0.21626136203004    3.01181042415247    1.33508212623515
H           0.75502132464905    3.79056840879724    2.56104015355710
O           2.04223012956878    0.99098571130684    1.28725062390160
H           1.73120342082362    0.92989297286586    0.36960106077156
H           1.90978812975380    1.93194744987132    1.53221373599776
H           0.71006710008986    0.25695185159713    1.77260862747278
N          -1.30459012892096   -2.14894254562669   -1.23241549221984
H          -0.48392026029193   -2.46896648834912   -0.66199436655522
H          -1.72775425128402   -1.33239981805509   -0.65499240230082
H          -0.94900309773555   -1.70856205221217   -2.11303718463077
H          -1.97250428753665   -2.89234440679200   -1.40173613149375
