    23
        -45.37469731  Gyration_radius:  2.38586226461 Dipole_moment: 4.763
 S           0.33963806863632   -0.25533069291787    1.02343273432761
O          -0.74436453511003   -0.20437797605652    0.03564904266833
O           1.28657022900039    0.96249303529787    0.63842570263695
O          -0.11210930444280   -0.05887044387014    2.37331234769225
O           1.16225393317796   -1.44388019306707    0.83393583148369
O          -1.42670576203343    2.14269652165948    3.01588287271218
H          -0.96954185254028    2.52103460947782    3.76864020622773
H          -1.02697961517089    1.25562747794428    2.87704140314220
O           1.32024133547095    0.68459286788983   -2.06732792778664
H           1.49415304809490    0.85030831095470   -1.12095502508001
H           0.46026530864871    1.07617587958996   -2.24129473507502
O          -1.51713234017817   -2.14978460458901   -1.54519367237661
H          -2.00327739693612   -2.78611205388325   -1.01854763109787
H          -1.36854025983469   -1.37132935203335   -0.95665272699013
O          -0.78210423632601    2.45048780171757    0.44156034147703
H           0.62321209004896    1.71424370645242    0.62030972468983
H          -1.17577085369319    1.61088910057747    0.15391996742805
H          -1.11247665231395    2.57920858934933    1.35661925403315
N           1.12935659412070   -1.94410236108648   -1.66956697814960
H           1.79191122515991   -2.61071372226292   -2.04908139682992
H           1.27111436266750   -0.97621203582105   -2.04961780791498
H           0.13237082258706   -2.22234847743624   -1.82579203860549
H           1.22791578117308   -1.82469600779480   -0.59469948861494
