    23
        -45.37469704  Gyration_radius:  2.38550387315 Dipole_moment: 4.755
 S          -0.39675438766815    0.82422567326295   -0.62736611716195
O          -1.06693230881246    0.13871914786730   -1.72564488793294
O           0.75529861741158    0.05028959483565   -0.15067835006211
O          -0.08472364418551    2.20143097694755   -0.89355238759214
O          -1.43367947919131    0.77741347766832    0.57679417701063
O          -1.20930747086187   -1.84060651732840    1.28098436730078
H          -0.38721446476039   -1.76549954498761    1.77249766012265
H          -1.47929748029255   -0.92301388011947    1.08498496776644
O           0.92908668156663    3.71351370996334    1.02290933668570
H           0.37624350734243    4.49486369153145    1.07287780013995
H           0.63919066294388    3.23043046027222    0.21750016041815
O           1.86733171531760   -2.00318318816810   -1.34531812723906
H           2.37162146438691   -1.67597411599666   -2.09185978201585
H           1.58569515920296   -1.20341972247409   -0.83988885305318
O           0.47085931448752    1.35055075659056    2.18196067235883
H           0.70776299164298    2.28522897293589    1.99994503677236
H          -0.85636178309571    1.09839899848436    1.33127123510018
H           0.97557215032817    0.83794829663766    1.52989734472914
N          -0.76563798644238   -2.35992332896858   -1.29590643356706
H          -0.96824009444611   -1.33019159051345   -1.57511469040245
H          -1.31699941836004   -3.02282037077889   -1.82879924527634
H           0.26536853555067   -2.48380200824549   -1.42845840633621
H          -0.97888229195468   -2.39457945941351   -0.26903548753755
