    23
        -45.37469704  Gyration_radius:  2.38551468 Dipole_moment: 4.755
 S          -0.85528468230748   -0.11762844658440    0.69642001390715
O           0.59621740720715   -0.09159365739976    0.48221519100938
O          -1.43767584329033    0.87377031230688   -0.40147447714930
O          -1.40947097060291   -1.42204453547200    0.35481983021288
O          -1.24723015610037    0.36999486609722    1.99004871333023
O          -0.55270388976661    2.80723545582159    2.74097994442418
H          -0.79265477671797    1.86371548164772    2.60557098630957
H          -1.35827891161111    3.24484262083461    3.02064621427692
O           0.06367508808952    0.12821075151483   -2.54380538319578
H          -0.61598738625703    0.43000919000116   -1.91110192423355
H           0.86476347936687    0.60069608948829   -2.30283108283055
O           2.15623787744200   -2.15794212323624    0.06107005555417
H           1.68980151299233   -1.31655003472309    0.28225658545959
H           2.26842834578796   -2.62070862629277    0.89285289465408
O           0.36013084876570    2.57277846702689    0.24122527394610
H          -0.89053967478585    1.69421185507001   -0.21946970417899
H           0.11548009123548    2.90299349109205    1.13227981534078
H           0.85946051010462    1.75742819513775    0.41022744313554
N           0.04007517795217   -2.33968005297884   -1.53603810468574
H           0.12271551400600   -1.48148072753838   -2.13418466343841
H          -0.65036852262059   -2.05012276680963   -0.74941883458977
H          -0.28190485845799   -3.14656748242753   -2.05826054157468
H           0.95511381986097   -2.50156831256820   -1.05402821559294
