    23
        -45.36469321  Gyration_radius:  2.40662203749 Dipole_moment: 5.029
 S           1.06225324592413    0.29734546401655    0.08497343325193
O           1.05129358390350    1.30326166560822    1.11951288310679
O           2.16760281512396    0.61293554643512   -0.93570227338285
O           1.21711104736989   -1.05305857523360    0.55001353639241
O          -0.20755653197840    0.41424490901659   -0.75778843134293
O           0.00811718843483   -2.37236680429451   -1.44738207383323
H           0.57680641711571   -2.10139213000114   -0.70301518558819
H          -0.12418924051008   -1.56846265458344   -1.95799749546552
O          -0.48405421859057   -0.28106902854258    2.67868244870686
H           0.02239761679840   -1.07572943570489    2.47987230295892
H           0.07947963195283    0.45145632868260    2.37720227383408
O          -2.30408994909011   -2.68221840958676   -0.14472177809112
H          -1.43909238596511   -2.71261786476770   -0.61727730982078
H          -2.96673948708969   -2.98810530603122   -0.76562824454581
O          -2.14662130397311   -0.17406494261878    0.63259253001864
H          -2.32219034807649   -1.12222828805090    0.38905639886132
H          -1.71006682335063   -0.20209021670486    1.52262055553089
H          -1.12732105163644    0.19084745225323   -0.16053587625343
N           1.73118938370265    3.13925456482682   -0.91092252089696
H           0.97208858317173    3.45695279421022   -1.49855179015771
H           2.11437587555366    1.62858295792941   -1.07550849308027
H           2.45134969482648    3.84899650227665   -0.89040769731527
H           1.37785624638534    2.98952546086481    0.03091282710829
