    23
        -45.37182630  Gyration_radius:  2.39883227313 Dipole_moment: 5.916
 S           0.77133409941353    0.44733047535605   -0.21545869616780
O           2.05497238175670    0.00066169427048   -0.70156117183376
O           0.78602954914333    1.67916374928633    0.53080111289631
O          -0.22434884734929    0.49296406590127   -1.32266068587417
O           0.25461780977683   -0.70767097994940    0.71435909656468
O           2.21721995035718   -2.14569358020617   -2.12715220788163
H           2.63389031210535   -1.87131523048130   -2.94628441725087
H           2.28623938434953   -1.35896447483541   -1.51944593953136
O           0.05893551281699    1.88043487386227    3.08318295932832
H           0.39212795720555    1.92258031406410    2.16229717978949
H           0.80619939196268    1.61922647211869    3.62288303557708
O          -1.99010899109104    2.03034202897518   -0.02887164013490
H          -1.41177635242599    1.53698130750321   -0.64026709212797
H          -1.43217453196496    2.73016863407407    0.32255953477173
O          -1.73875180315621    0.24449254038509    1.93505141523539
H          -0.56030520997765   -0.36140572857281    1.24245468762893
H          -1.26987748723543    0.79961891066783    2.59077959026451
H          -2.06035256746268    0.88423839878342    1.25729297289601
N          -0.34387442557108   -2.00345009725532   -1.61181517590747
H           0.63699519282588   -2.23282972890877   -1.95235343836593
H          -0.38447766159827   -0.89277670209833   -1.60394575536242
H          -1.07583677981159   -2.43451455720628   -2.16684896929763
H          -0.40667689409387   -2.25958237573897   -0.62499640520854
