    23
        -45.36469330  Gyration_radius:  2.40669870896 Dipole_moment: 5.027
 S          -0.34030293702633   -0.82835801217726    0.64844545445856
O          -1.45250495018118   -0.84433487369650   -0.26070351792092
O           0.64507875621216   -1.85919454343421    0.42787478643939
O           0.33553362208780    0.54232008390406    0.61862850691785
O          -0.86297778152657   -0.90880852707506    2.09188666444276
O          -0.91231193416496    2.39109221516137   -2.44472324380967
H          -1.49539021356806    2.18217217400752   -1.67737260504052
H          -0.88645761890503    3.34619151393526   -2.51756910239834
O          -2.15885551985157    1.74119337070014   -0.17253872148144
H          -1.50974191839168    1.94121124866379    0.50807165508666
H          -2.14144528724821    0.76950341642185   -0.25245882018344
O           0.46158539223180   -1.49809607210833   -2.24324298795298
H          -0.49966294519521   -1.43908217104102   -2.23377539615208
H           0.69385867722087   -1.86784180947236   -1.37464667385321
O           1.16069642677030    0.97725356861879   -1.65496054024135
H           0.76254559682618    0.77567831994626   -0.38914311036860
H           1.03217230321499    0.07796440407682   -2.05280262361557
H           0.44985839272677    1.55018421298200   -2.04945085905276
N           1.43897618462230   -1.41990568735692    3.09843845070606
H           2.03220959553982   -0.61762629678589    3.26261005402713
H          -0.02937777543816   -1.08639396463075    2.66419738148105
H           1.66251057527275   -1.81374846508479    2.18781622187535
H           1.61400334876528   -2.11137412555363    3.81541899663419
