    23
        -45.37605296  Gyration_radius:  2.42477143215 Dipole_moment: 4.379
 S           0.12975387225118   -0.71324607715064    0.46620289369461
O           1.02039368309197    0.33243506735968   -0.07934597151376
O           0.85403764171953   -1.85629022357229    0.94979155812157
O          -0.81714475877564   -0.14687245713752    1.40683332721725
O          -0.75348776575355   -1.16961372864244   -0.77003708626445
O          -0.67653462740504    2.22157476717496    2.54368047079728
H           0.04894732807346    2.22625810387508    3.16993833381802
H          -0.79241403155689    1.28102480451904    2.27261804586387
O           2.38391102019683   -3.21537883634288   -0.71860426575170
H           2.07712658300650   -4.12264737591278   -0.67925430293089
H           1.91592546841482   -2.74175852329144    0.00492462919126
O          -2.61001758027751    0.79718645429679   -0.50936239488015
H          -2.07964099053950    0.01571886048768   -0.74987325477822
H          -2.85833036075108    0.63525364538586    0.40680607494624
O           1.33429514188424   -1.28503841517083   -2.23199465750997
H           1.63183450792456   -0.55010648073264   -1.67524764839056
H           1.81834029853594   -2.06965525499949   -1.89171402844082
H          -0.05634684256786   -1.32357661762374   -1.47678053644734
N          -0.51298141743005    2.37939050595235   -0.10828347536304
H          -0.28519300835178    3.16964251548087   -0.70106316981178
H          -1.42676684844141    1.91914190104809   -0.37197210423611
H           0.22192256181495    1.58593061893940   -0.16205602181779
H          -0.56762987506005    2.63062674604353    0.90479359448364
