    23
        -45.37605293  Gyration_radius:  2.42475664921 Dipole_moment: 4.380
 S           0.69097592567687   -0.32583281842161   -0.39888861906609
O          -0.08553115018123   -1.54338856377904   -0.52832503928989
O           1.08155547566081   -0.25788394257039    1.13721421920304
O           1.90064474756418   -0.29353557416243   -1.17399099049641
O          -0.15549311303366    0.86535308291431   -0.62008465191081
O          -1.17498429314081   -1.47420704324840    2.03820630853373
H          -0.30281183816358   -1.05613941474997    1.91806410029294
H          -1.11932627063244   -2.28024912991820    1.51435037189011
O           3.60235035935603    1.69553501791325   -0.82787687237378
H           3.01018142888929    0.95882647711809   -1.09877572710032
H           4.44258522549661    1.28940849538907   -0.60903036773649
O          -2.47128786930340   -1.77636610918223   -1.61229220343417
H          -2.40029485790991   -1.64158130964160   -2.55849313404862
H          -1.54600142055774   -1.84532055706035   -1.27962952370480
O           1.63604046975191    2.22084147059828    0.89708803330083
H           0.92260703737096    2.20477863557649    0.24180077205061
H           1.39535252456561    0.69202076363429    1.22917744257058
H           2.46350976768192    2.22794126127230    0.36698447498216
N          -2.41819648991751    0.08923024481294    0.28543001020797
H          -1.51372465753929    0.53655444511910   -0.10750091463508
H          -2.74385390523687   -0.56544482939469   -0.46139975611400
H          -2.09608320270145   -0.49600302005955    1.10399685996085
H          -3.11821388368774    0.77546240783401    0.54397523691914
