    23
        -45.37605280  Gyration_radius:  2.42469340408 Dipole_moment: 4.379
 S           0.57829632170685   -0.32877440322837   -0.54774881056793
O           0.97626731777252    1.19783927934830   -0.38103322597061
O           1.14963254652268   -0.98736823930486    0.61067156397629
O          -0.89829068244070   -0.33686575336208   -0.48392163035294
O           1.07717204051287   -0.78970664037331   -1.81408065562536
O           0.91650324706154    1.19171260928998    2.33575745304320
H           1.01902827790825    1.38932424624640    1.38691879690170
H           1.53076067842741    0.46630853594499    2.48902204270257
O           0.39304206735604    0.49542316275714   -4.01694795127166
H           1.21452109996149    0.74211606984000   -4.44501515121936
H           0.64393492409647   -0.10518810279249   -3.27999267601816
O          -0.11228492567019   -2.55650345387372    2.30346218632751
H          -0.33702535569357   -3.37696648798369    1.86221144581505
H           0.49505930025013   -2.07893045548408    1.69137187146696
O          -0.81844134254588    1.85953619177294   -2.06976232622942
H           0.37269223112777    1.64301209245613   -1.04922753158111
H          -0.46598309894095    1.53920874658609   -2.92924560323866
H          -1.29186634822650    1.10025495273233   -1.69816184665881
N          -1.32578763944189   -0.20282129895489    2.03437710086031
H          -1.27357362473381   -0.24213730191802    0.95357578063581
H          -1.07729653302912   -1.16675562737884    2.35303581230205
H          -0.53750271186014    0.44023385701923    2.31941092376250
H          -2.22885780012035    0.10704801066197    2.37532243094749
