    23
        -45.36961866  Gyration_radius:  2.36783538965 Dipole_moment: 6.104
 S          -0.32306337862408    0.51489684450935   -0.97506091008465
O          -1.40735645212960   -0.31357227457325   -1.44304764772538
O           0.24673502902824    1.39303760201894   -2.00351603803871
O          -0.63629313790708    1.26752958491663    0.23583926502672
O           0.88705278896771   -0.42435726819329   -0.57971204880022
O          -2.82653203175050   -0.15951733132082    0.84080042948368
H          -2.20192399590859    0.56801201334986    0.98604319496442
H          -2.70228856470044   -0.34318768239823   -0.10404935299381
O           1.63689213866796    1.47148099212278    1.43935665940522
H           1.78264980571956    0.56627630337146    1.72651773831279
H           0.70130552218478    1.48039453674785    1.10196521597190
O          -1.55921183871686   -2.27757232125390    1.82926871734845
H          -2.20786294904245   -2.90158685790247    2.15847587480577
H          -2.06633750688345   -1.47091622403225    1.56234759762705
O          -0.37480092266318   -2.63510266788129   -0.54609481463919
H           0.52199465844533   -1.36534879794003   -0.54183466148683
H          -0.74559324900565   -2.64118771599504    0.36640401160480
H          -1.02039495910602   -2.15438730959360   -1.08677627479342
N           2.49945417778194    1.90164536400352   -0.99834786337881
H           2.27686288867117    1.75521025621353    0.04049876730562
H           3.16062242517371    1.20192675811395   -1.32046918810408
H           1.51637249645622    1.72623180346465   -1.51043270349766
H           2.84171704534660    2.84009440223174   -1.17817595830234
