    23
        -45.37886618  Gyration_radius:  2.31196961832 Dipole_moment: 5.413
 S           0.90362938690575    0.07565274948698    0.82197928935704
O           0.48943259761597   -0.44363995141814   -0.49332838042242
O           1.48186802369838    1.40191187305884    0.66601774747349
O          -0.22015411191480    0.05547555465711    1.74822803185024
O           2.00642100782570   -0.86602719616857    1.36477533843411
O           0.65067495290561    0.98791078918192   -2.69635489268532
H           0.59782898135776    0.34216666585099   -1.95210081893428
H           1.58080559706494    1.04660669987358   -2.92133535470843
O          -2.12971408968265    0.88671976660221    0.18180380042803
H          -2.26175408910104    0.12172068948895   -0.38422037382451
H          -1.51766626746298    0.57410520238599    0.89270270615023
O          -0.75429896115470   -2.74285943765336   -0.20782323968129
H          -0.36477885171700   -3.35252298009008   -0.83684792317814
H          -0.32593406791844   -1.87192354733683   -0.36938673512045
O           0.27443723212343   -2.53531047726659    2.28593497888796
H          -0.20857903171065   -1.73212149696722    2.53034600798423
H          -0.16448404470075   -2.84379520379320    1.46647501200278
H           1.49678913889136   -1.62605056809674    1.77352363111480
N          -0.32069951319510    2.54835190308481   -0.78504417939508
H          -1.17499588653036    2.00702662994460   -0.46081185400181
H          -0.46966476281395    3.55130041997455   -0.78172934453488
H           0.46343241261103    2.24175415137213   -0.12200529495405
H          -0.03259566309453    2.17354776382276   -1.72079815223496
