    23
        -45.37886610  Gyration_radius:  2.31208149567 Dipole_moment: 5.413
 S           0.00427950674687   -1.12336671092521    0.48266468474308
O          -0.80144839642435   -0.07848496496059   -0.17318461640637
O           0.59341094205030   -1.99312939810279   -0.52427865781932
O           0.99908552989873   -0.51779443144269    1.35703501373999
O          -0.95758158949860   -1.97538439427095    1.34644604477250
O          -1.69984486538488    1.62710150282768    1.61513214038400
H          -2.63753410752229    1.73882511424667    1.45049708748421
H          -1.36443086250676    1.03891066921521    0.90128337813848
O           1.78609563406484    1.46601919042162   -0.13869668200604
H           1.60200473937279    0.76314770458625    0.53197031910314
H           1.02698258060401    2.05338337613878   -0.09545256342923
O          -0.92377037066732    0.17985722316124   -2.78989227624798
H          -1.45223119951544   -0.55063109470690   -3.11592072307383
H          -0.99982997523940    0.14449378083946   -1.80669931181315
O          -0.84696144226101   -0.30600919885741    3.30457376247043
H          -1.05108779330827   -1.45026496928058    2.19510396168756
H           0.08910186208241   -0.25051171325021    3.06191899527536
H          -1.24919153947060    0.49488702902271    2.90946641738571
N           1.60980340874664   -0.25042801905949   -2.13625377382711
H           1.32142438229532   -1.08428035335872   -1.52800102248442
H           0.74218037904022   -0.00588692549877   -2.67161052516209
H           1.80368356053023    0.53269250689071   -1.44548558856706
H           2.40585960638793   -0.45314591362857   -2.73061604434042
