    23
        -45.37182635  Gyration_radius:  2.39886965363 Dipole_moment: 5.918
 S           0.13629959438260    0.34010247108121   -0.84020461004636
O           0.74834547931458   -0.20854878794692   -2.02676659790097
O           0.92961585280836   -0.28390156343409    0.36246835139446
O           0.17221076065889    1.77589284816862   -0.73166917261297
O          -1.24798107348399   -0.18425792665788   -0.67115592709847
O          -2.02372817727601    1.67619304135304    1.08729438425933
H          -1.90377481688557    0.98943586101365    0.40484336639626
H          -1.72298553352045    2.48866422460037    0.67008665871776
O           1.42587283035588    3.08789848294830    1.21534318015471
H           2.35347763645756    3.14275919611267    0.98199417276377
H           0.97038802432661    2.72053283858704    0.42890664959624
O           0.71106849142773   -2.75691767698740   -2.43762629939100
H           0.86107862796973   -1.77628144208195   -2.34259794894091
H           0.28347083671647   -2.86711381992166   -3.28901197293089
O           0.19867501451407    1.01116310410756    2.40141563390987
H           0.71449876930782    1.83077391728246    2.25912658528750
H          -0.71882184437852    1.24843676481110    2.12920998625455
H           0.66792597255140    0.22072975698567    1.22282779363798
N          -0.52684790969464   -2.53628321637616   -0.14341408569184
H          -1.18042366222651   -3.21437739710120    0.23441006332191
H          -0.08219836383781   -2.84115574758532   -1.06010388748661
H          -0.98751822373996   -1.55055074080288   -0.37054739191159
H           0.22135171424730   -2.31319421815494    0.51517107831114
