    23
        -45.36866944  Gyration_radius:  2.27799579635 Dipole_moment: 3.020
 S          -0.70391716276116   -0.31250690911979   -0.38570894417966
O          -1.17021369946717   -0.29042912254807    0.98525076291015
O           0.55575077741032    0.46308764187155   -0.51433033443231
O          -0.51630127582953   -1.65743477909927   -0.89806090050510
O          -1.74755272168217    0.44017535125338   -1.25437882030105
O           0.21872899300003    1.02753727221722    2.77800839894960
H          -0.49060447317597    0.51092587000970    2.33147615757428
H           0.18983989978155    1.88503163873762    2.30048278432799
O          -0.16457733893419    2.72151097692367    0.74218933127069
H          -1.09601347789314    2.83042174173134    0.54178703408127
H           0.14901358595530    2.00222947416921    0.16055674225910
O           0.68232321645981   -2.46168239131687    1.30648786610008
H           0.27403649890446   -2.32674920910235    0.41915300178734
H          -0.05584945861213   -2.43606376028440    1.92214541989011
O           1.91180581497124   -0.22970302113146    1.46357121724628
H           1.30586685183026    0.33044719612849    2.16539132390330
H           1.56885462823855   -1.19597904245238    1.50377206112960
H           1.51181610816977    0.10081700153121    0.56269632980579
N          -0.44553477418031   -0.28102594006977   -3.37448769219047
H          -0.25444409546024   -1.11242924570022   -2.82068967102304
H          -1.40755225860856    0.29752221926211   -2.19049572332903
H           0.41100742148493    0.25368185949557   -3.43897064614292
H          -0.72648304959149   -0.55938482250870   -4.30584568912955
