    23
        -45.36866949  Gyration_radius:  2.27805428367 Dipole_moment: 3.024
 S          -0.37468573624362   -0.44652652551260   -0.63195367888692
O           0.25937314703068    0.82542306046069   -0.20178916719797
O          -1.57009837602398   -0.03272663932526   -1.53205662292430
O           0.56777633870869   -1.23912163032147   -1.40008392855584
O          -0.90724233056928   -1.15553255838825    0.51306618985939
O          -0.65207045816208   -0.09111003957160    2.89655724821856
H          -0.91404003549050   -0.68137273996251    2.15329341496309
H          -1.09994395657683    0.75183595588868    2.66667686258874
O           1.78919239905683   -2.10764405904983    0.76786195252938
H           1.46319108588030   -1.87269267331440   -0.13250855962041
H           1.10123045324024   -2.66789817923469    1.13859126450169
O          -1.70226210833923    1.81488385795332    1.33854382872402
H          -2.51524416578400    1.52336255453768    0.92169669613168
H          -0.98985293366673    1.60719154716076    0.70350959041321
O           1.57204514383738    0.20486963732510    1.82829264690069
H           1.14654319003836    0.60447315603719    0.96778258517580
H           0.69327366170415    0.10217169136469    2.45308421599432
H           1.81281800456858   -0.74440201531546    1.52238467708909
N           0.11109013087283    0.79342421097670   -3.32130268680216
H          -1.11897941185424    0.35886227046405   -2.34167725539650
H           0.11901516516315    0.77391560874553   -4.33292904331973
H           0.53673101229883    1.65653823558978   -3.00892314073725
H           0.67213977028684    0.02207527351210   -2.96811706964516
