    23
        -45.37722789  Gyration_radius:  2.39404123645 Dipole_moment: 5.950
 S           0.97629463833405   -0.04346425635895    0.50977086402472
O           1.37190177452419   -1.41394382576165    0.20309429398334
O           2.15037810095264    0.61458691643749    1.27160574152610
O           0.75638275354084    0.71593809199328   -0.72523987165128
O          -0.20728521295985   -0.00040218468636    1.36402107479543
O          -2.19793839477550   -1.63099454004851    0.92325178946542
H          -2.34996781369774   -2.06416043290478    1.76497335305948
H          -1.52069212030282   -0.93098137398549    1.10324973013672
O           0.33216268753987    3.26990600735105   -0.16466440480806
H           1.05286102808730    3.74258274612790   -0.58442456856518
H           0.41881158634777    2.33357202224597   -0.44849918135742
O          -0.50237489807480   -0.43422899057500   -2.71240997749087
H           0.09312130380962   -0.35328143582539   -3.45941823742039
H          -0.08544496420293    0.08700489845552   -1.98189384908985
O           0.61513761240373    2.36272636377626    2.34478177119903
H           1.71239005065727    1.36065641548243    1.78092026165980
H           0.44369099676961    2.92110360684900    1.55714654112052
H          -0.03646555413966    1.64655122883418    2.29081030908923
N          -0.61795787087448   -2.47533820868893   -1.02544254237017
H          -1.39493953238526   -2.29642050069135   -0.33910982752220
H          -0.71158752498016   -1.80972720867974   -1.83324755737561
H           0.27789926045935   -2.15793610670789   -0.51693000788828
H          -0.57637788703166   -3.44374925264125   -1.32234570452019
