    23
        -45.36881375  Gyration_radius:  2.43282309514 Dipole_moment: 6.093
 S           0.05822449919927   -0.00655082375876   -1.04078541019495
O           0.10425923588872    1.19474078678155   -0.20961702206736
O          -1.26346036521986   -0.32540206157238   -1.51925987296664
O           1.07960970653603    0.06230128074493   -2.09498274599592
O           0.56014411634568   -1.18622617965399   -0.11846185127251
O          -2.54181642825161    1.36053629925295    0.17676351665103
H          -1.60253339593945    1.59432287835731    0.26158094192927
H          -2.54081975256642    0.81647111172713   -0.62412922653804
O           2.41636498223915    1.86809165032036    0.74699178892111
H           2.55642613941871    2.76969018747227    0.45162823365216
H           1.48000668146785    1.64826553620134    0.49256674863599
O          -2.85689477701368   -0.55970180374157    2.00028799137440
H          -3.78859907742070   -0.62518321791264    2.21485605459588
H          -2.76358674009399    0.23017859776571    1.41466905177312
O          -1.70506349225326   -2.26977931648650    0.29017690882068
H          -2.12057083253805   -1.76115082519138    1.02414281852087
H          -1.94547450888925   -1.79785618285119   -0.52220038287858
H          -0.26494674679237   -1.70592239226204    0.14914342766836
N           3.07996178777472   -0.27499968304048   -0.61563807399334
H           2.27420081418767   -0.12917802628787   -1.38207393600690
H           3.03184606944502    0.60263102478268   -0.02297567209470
H           2.75504957349408   -1.06413901728490   -0.05798741463088
H           3.99767249098124   -0.44113980336261   -1.01469586390653
