    23
        -45.36881281  Gyration_radius:  2.43246176851 Dipole_moment: 6.059
 S           0.83248093961184   -0.25932131572015   -0.57462215409744
O           0.47841364371215   -1.46107191796263   -1.28653710989935
O           0.71466462526115   -0.53585702731346    0.97577153547641
O           2.23329068983660    0.15095082940797   -0.74390507853220
O          -0.06189615342522    0.86463906507897   -0.84645633392430
O          -1.99016599054192   -0.58258426861274   -2.00897312624078
H          -1.26289521729512   -1.20675162956254   -2.14212650574421
H          -1.52718688037052    0.19359289381018   -1.65041487461867
O          -3.10795184724204   -1.66109479182247    0.15910180825369
H          -3.81949685052186   -2.23815640930627   -0.12222185500797
H          -2.79492671442863   -1.19356643756407   -0.65267585060853
O           0.43770447302304    3.09097240446798    0.38289576243518
H           0.53113740634899    3.74586026737592   -0.31144751126796
H           0.12073508834145    2.26526458502333   -0.07232732039981
O          -0.70514332426799   -2.64115755279012    0.82312728050020
H          -0.34329349806389   -2.67585979337098   -0.07605160093858
H           0.13688134520167   -1.36011277741876    1.07191237101009
H          -1.63534990239994   -2.33360008028499    0.72210002929315
N           2.38488229270107    1.59188819276821    1.30639968854175
H           1.69630679600873    2.35797999108737    1.05650705167229
H           2.45193022570805    0.97203934806302    0.37408368292009
H           3.27997362596687    1.94489730412561    1.62771691574221
H           1.94990523683642    0.97104912054718    1.98814319544269
