    23
        -45.37245962  Gyration_radius:  2.37434957754 Dipole_moment: 5.921
 S          -0.45960409574665   -0.01916287423620   -0.76991925599336
O          -0.09802325302042    1.15691638020978   -1.52048558815267
O          -1.77724264515173   -0.56447967306472   -1.11654892826959
O           0.56688407556587   -1.06199792207434   -0.82778469397847
O          -0.61549397982939    0.35649317151947    0.74339847096816
O           2.59699043158873    0.66571651277704   -0.86096808224761
H           2.23382890482284    1.22620862126207   -1.55299798400131
H           2.00983558897774   -0.11391789625794   -0.85832428015462
O           0.04399776244277   -3.20902482314522    0.52329934623007
H           0.36127491412369   -2.40257102378885    0.03424640387974
H           0.12910252494169   -3.93456892672294   -0.09790576656471
O           0.25860350151818    3.54697946715265   -0.40451165591611
H           0.58938901453666    4.13828880020304   -1.08213161490246
H           0.00959028399355    2.71727516030887   -0.86257744416436
O           1.41576975788282    1.76342013067128    1.27678913307033
H           1.09889001973776    2.60028453230271    0.88692446680086
H           0.19902910152011    0.91567946462583    1.03076355671300
H           2.04474153028605    1.38944587937415    0.61779853096045
N          -2.15711008431822   -1.85894833632980    1.00062913940634
H          -2.11462687442954   -1.31249109393322    0.02257001440838
H          -1.90955235672793   -1.15321809831011    1.69347844310708
H          -3.05829677346341   -2.28351899451966    1.19230187373676
H          -1.36797733924916   -2.56280843802290    0.93195592506827
