    23
        -45.37136259  Gyration_radius:  2.46228387569 Dipole_moment: 7.531
 S          -0.60343510530449   -0.29462889022442    0.75612892043670
O          -1.12460076766722    1.04879630707066    0.65630909135127
O          -0.91765656634270   -0.85471116354819    2.17005126191086
O          -1.20291997732725   -1.22628538436223   -0.20464209926605
O           0.86717473135354   -0.32110769927947    0.60787825794866
O          -1.67819584380380    0.73545572850604   -1.97311369437487
H          -1.78059791625270   -0.09831527427403   -1.48217194405917
H          -1.54006091358600    1.37090770132341   -1.25667196514724
O           0.39103121727733    0.13432418911935   -3.48263982672630
H           0.04825521448095   -0.03868167502759   -4.36102992279025
H          -0.37198760071560    0.49960421355730   -2.96008084380460
O           1.88066832229807    1.14047814566053    2.59775824676387
H           1.57314010316634    0.66192382502094    1.79993677494787
H           2.40677972531614    0.51425330191382    3.09820647274213
O          -0.70744549819251    1.44449821813554    3.29440337207570
H          -1.03064296736022    1.76755711298437    2.43911658500105
H          -0.89657523858193   -0.05558565655436    2.77881253526598
H           0.26687355184024    1.52703375653125    3.24106723218838
N           0.91768329190482   -1.62670939150029   -1.58069570644075
H           1.45519639432022   -2.47129666733100   -1.73961093476405
H           1.25584956888850   -1.05796592860593   -0.74887882725087
H           0.85167247724389   -1.00235635937437   -2.43060478955442
H          -0.06020619297025   -1.79718839974478   -1.21952819643344
