    23
        -45.37068252  Gyration_radius:  2.30527458481 Dipole_moment: 2.027
 S          -0.22118420254391   -0.12971136915806    1.10041629076011
O          -0.57669521496259   -0.30992188693661    2.59394731674303
O          -1.45027551509263   -0.04830506547605    0.32375052253736
O           0.54978046984131    1.11842277041203    0.97316870584575
O           0.58789439719588   -1.27598190554922    0.70156717765385
O          -0.64655474937557    0.14617463957893   -2.16136542532732
H          -0.39642211802432   -0.79351566942231   -2.27816175013825
H          -1.12134795816071    0.15416892102640   -1.29479073197866
O           0.15730783169060   -2.37637679514239   -1.67163278463012
H           0.24334721936986   -2.07286810088362   -0.73956715884993
H          -0.49375256646300   -3.07913770194647   -1.66312281575522
O           2.66328322467479   -1.03323886500506   -0.95202959910736
H           2.10944626624288   -1.18950726140849   -0.15800182045954
H           2.35763963339749   -1.68024155531045   -1.59749664599686
O           1.46758948144250    1.18623289399097   -1.32354978424785
H           0.59158448135506    0.83561159968093   -1.81160679504724
H           1.13275576409306    1.28431066301820   -0.32161097932235
H           2.09514163096299    0.37491984668148   -1.27525543513358
N          -1.90427080839573    1.90400668505121    2.36148726761075
H          -1.12787073683302    0.50524490696771    2.77092211581933
H          -2.64412170991505    2.44016834660133    2.79681027934216
H          -1.13340894338520    2.52255368574294    2.14124357987121
H          -2.23986589711835    1.51699122748377    1.48487844981176
