    23
        -45.37369005  Gyration_radius:  2.38626309269 Dipole_moment: 5.394
 S           0.96050932055094   -0.37731734807620    0.58339927989061
O           1.48359377720731    0.02236775407906   -0.86888567451216
O           1.89080689308693    0.14823972992994    1.54307063095702
O          -0.37205484399107    0.23149265724019    0.66845782031796
O           0.87108959287870   -1.83027481977226    0.55136117741634
O          -2.65481678476324   -0.93147692788886    1.21986638082045
H          -3.34083394796328   -0.26231838615434    1.21514279491200
H          -1.79692877508870   -0.44617390133023    1.17902209717446
O           2.34190995056118    2.75284728354630    1.56061970695957
H           2.18627570714210    1.79212004428134    1.70000597553185
H           3.29377645338788    2.86186888795887    1.53294205677507
O          -0.67855223799106   -0.48752147339809   -2.41692676131055
H           0.20340353879194   -0.38714171515988   -2.00740557053735
H          -1.09036077370246    0.37708410850115   -2.34869387960765
O           0.65770681715169    2.41424528368503   -0.48479750571341
H           0.00667119220103    1.92063478407330    0.04174337460721
H           1.27302326306606    2.79301895050795    0.17855238948005
H           1.33567490675482    1.01318075195668   -0.86276475649897
N          -1.34141741392971   -2.35148228463515   -0.61333472907708
H          -1.25775310616085   -1.72346789301814   -1.44605273317166
H          -1.51940025871800   -3.31583799463904   -0.87052793811510
H          -0.39068257170243   -2.24193555930889   -0.09479499124467
H          -2.06164070876284   -1.97215193237407    0.04000085494237
