    23
        -45.37182632  Gyration_radius:  2.39883457632 Dipole_moment: 5.916
 S           0.28344931361051    0.39549604335430   -0.77778807077886
O           0.92748380125026   -0.12732841239838   -1.95907460642325
O           0.82387987694101   -0.47750189884114    0.41025587706333
O           0.54121797882870    1.78399399870412   -0.49471921816428
O          -1.17787699499809    0.10683702993645   -0.80316738298664
O          -1.83188400260671    1.88241327419080    1.08733119692340
H          -1.74943955387091    1.25940357583086    0.34113717649953
H          -1.35832383921733    2.66879740392969    0.80118675189045
O           1.76488874874726    2.65026431968839    1.70439897394012
H           1.34690286380883    2.45049892205799    0.84050618098726
H           2.70937849424838    2.56797683814277    1.56625030406267
O           0.52057687350929   -2.57472040985355   -2.67318316386238
H           0.81719598728297   -1.65044369548484   -2.44780457138385
H           0.17919308909938   -2.52089099540480   -3.56783157537234
O           0.09105093342025    0.70907372439368    2.51393390910086
H          -0.73921205839664    1.12924054577998    2.18819234529421
H           0.55392928164346   -0.02598617975211    1.29684401462792
H           0.74625702604453    1.43622761830584    2.51921283446232
N          -0.91499399973904   -2.37635492193317   -0.49482824364001
H          -1.70862668421052   -2.96471325841376   -0.26305885371683
H          -0.42593234070964   -2.65946676555012   -1.39562089967612
H          -1.18011624736269   -1.30747381580787   -0.64474496811609
H          -0.21899854737921   -2.35534293086890    0.25257200931947
