    23
        -45.37369002  Gyration_radius:  2.38651328352 Dipole_moment: 5.396
 S          -0.78503699202354   -0.44079209250675   -0.77061379352824
O           0.62147980391335   -0.35064714276366   -0.36176602308006
O          -1.47638907397865   -1.49333739766570   -0.03959043875587
O          -1.43777957974470    0.91185980292083   -0.23504606356601
O          -0.96444351403677   -0.47865009129788   -2.19508329429629
O           2.00999204191919   -2.06021337452387    1.05835222571522
H           1.56370261179246   -1.49114700119086    0.38739359727176
H           2.90405057561300   -1.72518320104042    1.14096300531474
O           0.02993720981241    1.49809433585634   -3.64130619638125
H          -0.68291874997839    1.80633861902539   -4.20304014032571
H          -0.30103653070504    0.67615846562284   -3.21525431955470
O          -0.44698827318144    1.07181967907266    2.27978689705810
H          -0.97432572935889    1.07321639857762    1.45662649018236
H           0.35039407906084    1.56450673160499    2.07176622893955
O           0.57816817799134    2.21248719543901   -1.12651268280872
H          -0.80440454116687    1.59347390128572   -0.60632166268915
H           1.00337505867323    1.36711712841076   -0.90458553945844
H           0.48442759887682    2.19095720977630   -2.10267885271542
N          -0.33349130410462   -1.60266129006135    2.24182477753988
H          -0.32841691637859   -0.58594329438247    2.48886154106193
H          -0.76939247200846   -2.17384747515019    2.95703609993009
H          -0.87850223755020   -1.65024766478091    1.30074988696231
H           0.63759875655675   -1.91335945222541    2.01843827718486
