    23
        -45.37076555  Gyration_radius:  2.35207494295 Dipole_moment: 6.093
 S          -0.68558242019816   -0.91143151815575    0.05716912163556
O          -1.46459203397376   -0.96395577493213    1.37328622333684
O          -1.20808691550552   -1.94321735947113   -0.82706659877343
O          -0.83906132252725    0.42406618650153   -0.52618522582110
O           0.74260379191239   -1.16278439171421    0.34030534436904
O           0.62958030443079    0.62402281155374   -2.67986331837654
H          -0.01309412977478    0.63105976393212   -1.92599435046196
H           1.26135361857980    1.31820139550674   -2.48168435638758
O          -1.75587547454209    2.56136242957610    0.76573342414929
H          -2.70860052521340    2.53540879427724    0.66288245390905
H          -1.40308773312392    1.84567824501816    0.19672917107627
O           1.79693552835664    0.64245045020030    1.94314711990282
H           1.45260139712103   -0.01577548524739    1.29808048714265
H           2.30487679628612    0.14285879789451    2.58496869851060
O          -0.74055282832477    1.03893069733967    2.72724334838641
H          -1.11479465357690    1.76097989337603    2.17748652577426
H          -1.19166844854884   -0.17029436970762    1.98388961683931
H           0.22596447085060    1.05188868070344    2.55321688193834
N           0.98205874080939   -1.91508811612540   -2.09409050687846
H          -0.03986306589043   -2.12664938374746   -1.83610541969409
H           1.32825923406360   -1.74688921248783   -1.11623776004794
H           1.46100802596436   -2.64753757811424   -2.60626650261999
H           0.97961767283846   -0.97328497618623   -2.57064437791214
