    23
        -45.37824523  Gyration_radius:  2.39122002862 Dipole_moment: 5.933
 S          -0.01210700625613    0.67277568979730   -0.67494154173157
O          -0.37795920326631   -0.32585659371294   -1.65772693253287
O           0.70218828275269    1.83762059178976   -1.39952170182777
O          -1.16880014003517    1.20682956696126    0.03483701440702
O           0.95422282276190    0.10360814825896    0.29152880920838
O           1.88967518954498    1.99579872495470    1.90156887994088
H           1.56089472760773    1.23813770160352    1.37161097579570
H           2.81768952343846    2.09132407386086    1.68016446420131
O          -2.46810098519823   -1.04290950831950    0.25338789455129
H          -2.09647295640245   -0.12630833646092    0.26907334418088
H          -2.67989663265022   -1.19118854677445   -0.67196425340621
O           0.43441581118167   -2.81736428522494   -1.80841380052531
H           0.24560998570873   -1.85168358108050   -1.88356838226889
H          -0.02874522910655   -3.23406308542527   -2.53671844537428
O           0.17219366517832    3.50308732589487    0.47472643357524
H          -0.62265809845972    2.95722898756236    0.57863499517207
H           0.80050120473889    3.17425334553269    1.15129454993568
H           0.58636685797638    2.62380106466782   -0.78277939295992
N          -0.13961830296407   -2.19920142685087    0.71208634651174
H           0.42408893760038   -1.29030280403097    0.65596903166970
H           0.10344975954457   -2.72453151727302   -0.15786168767077
H           0.05272682478757   -2.72246753118055    1.55904294581689
H          -1.14966503829679   -1.87858800463722    0.63957044318697
