    23
        -45.37824510  Gyration_radius:  2.39125758629 Dipole_moment: 5.934
 S           0.35755042094042    0.16759977169255    0.86665692069169
O           0.79646214603538    1.18434242049221    1.94639413027302
O          -0.01929949653917    0.94511235897775   -0.33555537791262
O           1.47870736191593   -0.69843636325964    0.56677111936428
O          -0.79850701591539   -0.56885741145195    1.36463336872843
O          -0.57238980177233   -2.61924485162885   -0.22993224096703
H          -0.80345664493686   -1.91244263710147    0.42237283311250
H           0.24126567460822   -2.99605719001496    0.11511730774230
O           2.73259085245152   -0.98335446895315   -1.72162284551737
H           2.40167455698255   -0.77701568256312   -0.81509214115950
H           3.39398676844770   -1.66820696026713   -1.61137776351744
O          -1.84973776584896    2.77017854182722    0.27101708108263
H          -1.20573935849853    2.09632501053809   -0.03584132043087
H          -1.41788676521365    3.61915539947376    0.16059263357329
O          -1.61298536544650    1.62676193625062    2.69901415626740
H          -0.06360129174307    1.47846900857222    2.37719942268064
H          -1.91584886236801    2.15581802975424    1.93160094127869
H          -1.74281163473143    0.70178527031012    2.43801905278962
N           0.10659405028956   -0.91284881684739   -2.12651560212805
H          -0.40489907134025   -0.83380171493231   -2.99845214835563
H          -0.00218784238106   -0.04490139765567   -1.50838816244071
H          -0.23606538786866   -1.70864888956898   -1.51216933328188
H           1.13658448280078   -1.02173135347329   -2.26444206178721
