    23
        -45.37219176  Gyration_radius:  2.4582570907 Dipole_moment: 6.207
 S          -0.41922914201992   -0.70084038385357    0.62315137272694
O          -1.21617797046199   -1.19234520943033   -0.49900202340832
O          -0.67693641108539   -1.65905774632469    1.81519251260861
O           1.01734624451859   -0.76431280473058    0.31380286523703
O          -0.81395098755386    0.64320005766559    1.02016377797348
O          -1.77764893412831    1.40385223748222   -1.33249699239935
H          -1.41482888173297    1.37904932520900   -0.42476367127691
H          -2.19677465754672    0.54015108215819   -1.41462790346585
O           0.43541468983984    1.48245700693066    3.20646139109491
H          -0.01862007745198    1.28856374734398    2.35817620967115
H          -0.25770063473421    1.69855412388061    3.83263434851998
O           0.13340343246476    1.34906260394557   -3.15097981474299
H          -0.55253681095989    1.50482404681225   -2.45003246944115
H          -0.25188684738097    1.65451766878462   -3.97363471618075
O           1.49937579799267   -0.96983296834065    2.99090672125083
H           1.82770121143099   -0.87487705121341    2.08511756200894
H           1.26239309301800   -0.05941590762518    3.27027761893423
H           0.10772647136364   -1.51972889377321    2.42598699241850
N           0.68782216779727   -1.05882724224806   -2.19290545304070
H           0.59739869230906   -0.14860162316052   -2.71287032198373
H          -0.25718341717109   -1.30233587895551   -1.77650890160708
H           1.10234416677199   -1.79928756842053   -2.74722229144639
H           1.18254879472842   -0.89476860213386   -1.26682682344591
