    23
        -45.37219185  Gyration_radius:  2.45827181144 Dipole_moment: 6.208
 S           0.74165682689395   -0.66214008787761   -0.25820272536067
O           2.06907257763879   -1.27033504795159   -0.78136914479366
O           0.34123470474981    0.39135678950498   -1.20340590924263
O          -0.24231362678259   -1.74246071599363   -0.23433491370777
O           0.97844275479235   -0.11574472110867    1.07045139597915
O          -3.30708161429980    0.46910044825110    0.78149793508610
H          -2.58656528167838    0.11808118211130    1.36776160278950
H          -4.13388219446727    0.23031290942991    1.20318306648045
O           2.93406226960155    1.67851470634969    1.11472137885073
H           2.15497772814992    1.08546251923433    1.18300011194447
H           3.57342439268214    1.34690049287122    1.74755547510880
O          -1.38032082470117   -0.75445374184116    2.10559591567720
H          -0.50646488986669   -0.35458692054222    1.92494829653826
H          -1.31252644671409   -1.61173341052349    1.67092856238698
O           2.97942873142328    1.02487491085605   -1.48582778822760
H           2.59653776214635   -0.48142765245108   -1.10958994663140
H           2.04794150246499    1.21396349940874   -1.66970999188302
H           3.14804771748785    1.42049958807305   -0.60369813562786
N          -2.07144967135972   -0.39560044006464   -1.39779507657280
H          -2.54801788020061   -0.58697594219856   -2.27167467283650
H          -2.70272423718919    0.00354812329335   -0.65668989879403
H          -1.55943705788069   -1.22965612615598   -0.98841359583617
H          -1.21404322289175    0.22249961734128   -1.50893194133422
