    23
        -45.36462786  Gyration_radius:  2.41628313964 Dipole_moment: 3.607
 S          -0.17348496980313    0.84589925566632   -0.69082137758953
O           0.06089948480741   -0.15684855001922   -1.70432154234240
O           0.98006590341487    1.16113995099026    0.10990065323577
O          -0.68765945336266    2.13158306267541   -1.35871978600643
O          -1.33707477596470    0.40623303482383    0.18382534622121
O           1.19769131804467   -2.37791629019095    1.35696240902471
H           0.91479121892286   -3.23429834937664    1.03356006163455
H           1.69016841558239   -1.95288845754392    0.61335933897738
O           2.33941022003062   -1.14062177080246   -0.70377759685212
H           2.60544261194760   -0.28399974430219   -0.35580694103421
H           1.55102467462124   -0.93807188128032   -1.24080670909210
O           1.12250394015683    1.24937812512508    2.78692567416341
H           1.11575173588106    1.40057904377851    1.82200175855226
H           2.00415678735602    0.94054245159289    3.00573611329524
O          -0.61738468663847   -0.68463269139018    2.27022135895079
H           0.02597903991312   -1.38136803565672    1.98279984828230
H          -0.06555810009008    0.02847074328334    2.67340501386978
H          -1.05603345191141   -0.09047635366942    1.12504483007861
N          -2.44497145286064    0.79066426911754   -2.66290519300712
H          -2.82244434875236    0.92048031137964   -3.59238885331505
H          -3.19245231502348    0.52285068964129   -2.03623773335396
H          -1.75588154004778    0.04414066071487   -2.67711046441313
H          -1.45494025622198    1.79916051543424   -1.94084617927695
