    23
        -45.36965416  Gyration_radius:  2.26192630724 Dipole_moment: 3.831
 S          -0.57474020842256    0.33302169173480    1.17248973008721
O          -0.59287096620318    0.12980600190169    2.70238780985020
O           0.81592466664489    0.17574795389789    0.71622611839849
O          -1.39288788897528   -0.73715289139069    0.56829848017476
O          -1.08348688103622    1.64670322686981    0.86574678871290
O           1.26186349055610   -0.89622239769763   -1.64429976507937
H           1.77051096566048   -0.18790553697895   -2.05152907629179
H           1.19133851240828   -0.64059613411896   -0.69361480675628
O           1.50192047593259    2.00911529654492   -1.07911606552855
H           1.29925882744499    1.40997222324124   -0.32509807417077
H           1.77112184729088    2.84063299151177   -0.68632605934030
O          -1.09914493676585    1.97973959071363   -1.73153096667572
H          -1.30570768468261    2.02709643560113   -0.76845607629254
H          -0.12993226437210    2.13387198486223   -1.75541042650817
O          -1.24551947323954   -0.50274881225631   -1.89432159466166
H          -1.26562825827060    0.56677813875904   -1.95758784049364
H          -0.25754659646895   -0.76090606490316   -1.97457353927484
H          -1.43571584379086   -0.67306809307060   -0.86890938150062
N           0.21009985788695   -2.31057450154509    2.31569541479068
H           0.11650618608134   -3.18236264959005    2.82047698823728
H          -0.26443193386665   -0.81254285565823    2.79083611021642
H           1.14850655179021   -2.24579701364102    1.94328685357126
H          -0.43943844567207   -2.30260859536587    1.53532937853799
