    23
        -45.36462790  Gyration_radius:  2.41612654919 Dipole_moment: 3.605
 S           0.44634252352416   -0.91374630674476   -0.43131611725546
O           0.41910088629252   -0.79862954720537    1.08463842333261
O           1.28880611493246   -2.17472297832278   -0.68361421460249
O          -0.89808045072246   -1.13459091114735   -0.91245010899290
O           1.10858390050006    0.22003558844722   -1.02050398665067
O          -1.49934928507500    2.56301227459658    0.32541305365859
H          -2.41616728718066    2.48450039118468    0.59240077840224
H          -1.43936023909324    2.15523281661545   -0.57248196035467
O           2.38251536135796    2.20028288297792    0.26415142025734
H           2.22331150312947    2.98805749078736   -0.25982605464717
H           2.08776122074573    1.44429879644449   -0.27957858530307
O          -1.28586867980150    1.28068566943253   -1.99645365885630
H          -1.35886780335392    0.35821952515670   -1.68854312803171
H          -0.35886526660514    1.36871270658503   -2.23844212888471
O           0.38244794008420    1.53327337029847    1.87325477621981
H          -0.35480832795220    1.96010317641206    1.36726258485341
H           0.39723546189857    0.22956137859419    1.47711254719061
H           1.21251681154736    1.88076688838269    1.46608988811740
N          -0.52795041544700   -3.64279881397859    0.37961724987793
H          -1.18866068494186   -2.97236650095386   -0.00287281450459
H           0.71613741153949   -2.91887375256207   -0.28792926768399
H          -0.50387316294478   -3.52912266510680    1.38442305722802
H          -0.83290753238600   -4.58189149988274    0.15964824668812
