    23
        -45.36624157  Gyration_radius:  2.39809202467 Dipole_moment: 7.340
 S           0.28449804834749   -0.49947634540267    0.80037181036724
O           1.26096614162173   -1.56516834693352    0.75461058376146
O           0.25956286353573    0.26541153925548    2.01217353572455
O           0.64693847294762    0.48454148391333   -0.39702390102918
O          -1.05368359562891   -1.00014736025806    0.39642743595499
O          -0.98377872808522    2.65899948981611    2.05478041003026
H          -0.66515681213319    1.79330694567094    2.36454523797486
H          -1.65045590857057    2.44318555274373    1.37966266428448
O          -2.09951068875994    1.43245854541635   -0.13898337575095
H          -1.38204594617759    1.71957163183527   -0.70962210921856
H          -1.87042771660346    0.53021970102032    0.14828270898909
O           1.49630978201951   -3.23551509459330   -1.19785354994855
H           1.56353632429306   -2.62177803281540   -0.41675610587352
H           1.33021689092330   -4.10409046952575   -0.82673092364476
O           1.27197594569758    2.70002228386239    0.71688484681257
H           0.41806106324949    2.86761476780205    1.20809126766858
H           1.91179363232590    2.48696414383091    1.39995802748721
H           0.95248005760415    1.35743767477534    0.01180543095061
N          -0.35503767066482   -1.55128175813112   -1.95827610198556
H          -1.05870746453460   -1.74469353245295   -2.66373994579153
H           0.16259259624498   -0.69567570087290   -2.16115324661998
H          -0.78314757338651   -1.37768891450711   -0.94551249027013
H           0.34302026571102   -2.34421818445877   -1.83194220987336
