    23
        -45.37156679  Gyration_radius:  2.50161005536 Dipole_moment: 5.869
 S          -0.73111128805028   -0.39770430896569    0.67130937668256
O          -1.82507400935094   -1.14193782547075    1.23196312330246
O          -0.04209752570631    0.46179895716858    1.63648627055610
O           0.23755287456534   -1.25423961381508   -0.03784014005885
O          -1.29723613717077    0.58911609744110   -0.41326765988072
O           2.87398989015832    2.03107686918896   -0.49058482674707
H           3.46137205861237    2.73754227314416   -0.21764206742292
H           1.95260530280056    2.35859333708711   -0.31646926196231
O           0.43083627214380    2.68820783620912    0.24380260879430
H          -0.24766696271652    2.63221570870640   -0.43473169703657
H           0.19946212596855    1.96772220058516    0.86686318599124
O          -3.29082155699209   -2.55696977700691   -0.45151976071325
H          -4.19548978169464   -2.27613414111680   -0.30440832481268
H          -2.76145931023836   -2.14111098503035    0.26485411111392
O          -1.56808375998882   -1.32966631973391   -2.08947490227834
H          -2.29282744673246   -1.86226934402146   -1.69436320513644
H          -1.51091318896084   -0.02129560170886   -1.17871651128334
H          -0.75996675857363   -1.66517588161998   -1.67589394282375
N           2.33168676119751   -0.17127834750896    0.88617658179973
H           2.71520953679754    0.61808043850023    0.30258311569061
H           1.61124328654532    0.22126917958098    1.54041783976300
H           1.65586605311155   -0.77651861364003    0.30980363297728
H           3.05292355425966   -0.71132212798126    1.35065244348939
