    23
        -45.37048815  Gyration_radius:  2.44647737132 Dipole_moment: 5.470
 S          -0.13945823689744    1.06815497841439   -0.37471443122259
O          -0.36122836369242    0.75687522237836   -1.78033937749003
O          -1.35226320734435    1.32385187890834    0.36965999836644
O           0.65697224778298   -0.00544622990407    0.26775440298852
O           0.75093313042398    2.34301647641213   -0.36863509247096
O          -1.52766897644945   -1.54232482099184    0.16929618653303
H          -2.20154119412434   -0.86351056665472    0.07583301402014
H          -0.70781481846063   -1.04292462191228    0.34391609874186
O          -0.58378163059456   -3.24072190055379   -1.64597950310685
H          -0.44272708136692   -4.06335362264684   -1.17413452336271
H          -1.10019220808752   -2.66432534678083   -1.03447435026514
O          -0.34357462065294    0.87028053064176    2.77038170148901
H          -0.92703277280402    1.02352654855893    1.99752003507236
H           0.27444578612320    0.19732132704397    2.46779773523519
O           0.86435039699692    3.12489600488381    2.11192820770373
H           0.20562940007648    3.81542230440121    2.21362956234834
H           0.47922987344907    2.31583024107635    2.53424761451574
H           0.86644863591138    2.67269326097365    0.56813375765620
N           1.15933506813380   -1.25209406582890   -1.93452884456778
H           0.50826933522086   -0.42579390865351   -2.17828572875829
H           1.99498321785527   -1.29543117953296   -2.50605487046783
H           1.33634098555002   -0.97900975065779   -0.93884287403610
H           0.59034506255296   -2.13693275939006   -1.95410869896187
