    23
        -45.38152955  Gyration_radius:  2.23396324962 Dipole_moment: 5.497
 S           1.45054327712345    0.30381793055606   -0.22862048966149
O           2.04740996387639    1.11982093791453   -1.40497982136642
O           2.51023842452051   -0.06297221004480    0.67227216376344
O           0.41750905427523    1.12092565385166    0.41455260303557
O           0.81084295590790   -0.89523828400772   -0.82156388289557
O           1.11524914388358   -0.33942473260476    2.85738373518217
H           0.71658086901317    0.53390681026000    2.90689255261227
H           1.80337207342268   -0.25423379957336    2.15358939723338
O          -2.06082801947093    0.15680359425206    0.55032953794091
H          -2.22704929383310    0.03262260950733   -0.39446603319194
H          -1.22905586202580    0.67805141294449    0.58252979754745
O          -1.34027221690944   -0.23507672921936   -2.13203231385884
H          -1.38233462745290   -0.70840177476487   -2.96411190454822
H          -0.50549140401098   -0.53044252400789   -1.68545543122850
O          -0.22751324381115    2.26565446963519   -1.92959993106292
H          -0.25474018412933    2.27500991582263   -0.96082918399467
H           1.28670231770870    1.63627063036699   -1.78104036846289
H          -0.78871909481278    1.51374420057015   -2.19187883340979
N          -0.44334692093817   -1.76577379224451    1.28753705097093
H          -1.29888362606785   -1.15892363339181    1.12280090911586
H           0.13166865164841   -1.63452069763094    0.40650998695561
H           0.12976002684915   -1.31416141753195    2.06279933949214
H          -0.66164226474524   -2.73745855065696    1.47738113983116
