    23
        -45.37350730  Gyration_radius:  2.31078301488 Dipole_moment: 7.143
 S           0.87534741708416   -0.42984942733513   -0.54083559695397
O           1.26241504154628    0.96958071124671   -0.35915389694354
O          -0.68397983951632   -0.47452940573553   -0.34185119242608
O           1.03079491705379   -0.84885559445783   -1.93622104289757
O           1.49330642408233   -1.31109131528580    0.41570363822833
O           0.10867022079845   -2.45417243368764    2.38090764777218
H           0.69993455917555   -2.09963842263736    1.68361910371818
H          -0.10221598543444   -3.35074158351823    2.11807381063237
O           1.39289095898907    0.93520162241267    2.29263733151562
H           1.90531023030780    0.14079125758282    2.46544165327277
H           1.47147964806315    1.08177451898056    1.32940300196706
O          -0.78199978010263    2.32998252836037   -1.15331079747309
H          -1.38943837756894    2.23956743577661   -0.41465599706903
H           0.08131581646604    1.96183328513350   -0.82634675749091
O          -1.07127088361849   -0.04446004479681    2.12211226060910
H          -0.25260661690868    0.46136681481248    2.34240378326312
H          -0.89605449269445   -0.29908282134775    0.64701673672736
H          -0.88548824109387   -0.94547020264591    2.44842744131142
N          -0.87621726038613    0.43495856982847   -2.96927410495666
H          -0.00629704760036   -0.15996367094215   -2.58759053931554
H          -0.72214104993976    0.74152208432763   -3.92465925325681
H          -1.70856988177560   -0.14216612103845   -2.89661454365305
H          -0.94518578691709    1.26344220497586   -2.29523267657453
