    23
        -45.37182621  Gyration_radius:  2.39970800559 Dipole_moment: 5.909
 S           0.13985802462940   -0.71532063710201   -0.54905894143751
O          -0.25223162173749   -2.10191016529919   -0.46316054467637
O           0.37390187026854   -0.25761894551272    0.93474673863290
O           1.33234165050927   -0.45529498900225   -1.31383243338062
O          -0.99887045805450    0.12614443917265   -1.01201689324601
O           3.54915856313881    0.61123631258414   -0.29820958908510
H           4.04525711740278   -0.09109824615633    0.12424550588178
H           2.81155399538018    0.17349987674771   -0.77278611889177
O          -2.41558210771970   -2.76469853391745    0.78028335225076
H          -2.94652543829919   -3.22815622186431    0.12980183346700
H          -1.52452815521245   -2.63876421759661    0.35225877374247
O           0.49132489986648    2.24744427915343   -1.67214331350850
H          -0.15862774085365    1.53052809147919   -1.54878752051792
H           1.20230017877860    1.84672835551456   -2.18049030500808
O           1.50904909883407    1.99087530557246    0.77888616961996
H           2.41155145352462    1.69487658936538    0.54218419850952
H           1.12598087818536    2.31310844285157   -0.07059353505793
H           0.84532626150294    0.65940148349319    0.92265058219779
N          -2.34784160562134   -0.16800036482131    1.09135279094229
H          -1.87330465459519    0.03999161808303    0.10843271662507
H          -3.15223198688235    0.41827529112027    1.28864864655625
H          -2.57610511155373   -1.20626091376891    1.06423276956970
H          -1.59175510149500   -0.02498686010045    1.76335508680639
