    23
        -45.37182578  Gyration_radius:  2.40059861446 Dipole_moment: 5.896
 S          -0.19223277687950    0.56567993760127   -0.68521134905360
O          -0.50140269287900    0.33921666051546   -2.07694336130783
O          -0.79312891874252   -0.66769966157737    0.07902802533979
O           1.27451625589867    0.45929508266708   -0.44782414242609
O          -0.73129692116722    1.77569583907680   -0.11974059896390
O          -2.48152738379360    1.83145429275507    1.88456338415370
H          -1.87858547006268    1.93692967068190    1.11890493509930
H          -3.35378993362951    1.68606920319863    1.51594667438704
O           1.24488967666739    1.67171929315793    1.93656653856073
H           0.70897191838305    2.45071243143398    1.76192917830807
H           1.41377895682043    1.28574558861024    1.05668807160163
O           0.45956882768387   -1.71386721664079   -3.31433565156181
H           0.95917658517858   -1.35351847224895   -4.04938453309890
H          -0.03334446810968   -0.94026320772540   -2.92561922561208
O          -0.68944462209100   -0.06571570310218    2.52720401664974
H           0.10496518643054    0.51820873637444    2.52217592508474
H          -1.44658911741291    0.55337565069053    2.56859270445363
H          -0.77842675890223   -0.46455580018749    1.09021756195044
N           1.37191610047866   -2.01705921195313   -0.88100147971303
H           1.13111556305649   -2.07275405860959   -1.91516868840968
H           1.48409228561562   -0.93092195626592   -0.67661304351804
H           0.54209726981587   -2.28012549614687   -0.34587709767116
H           2.18468043764533   -2.56762161231045   -0.62409784425202
