    23
        -45.37182626  Gyration_radius:  2.39862248782 Dipole_moment: 5.924
 S           0.02638114330046    0.31369374033425   -0.86022601802079
O           0.43294277595148   -0.29144233317798   -2.10604819688776
O           0.96044159189453   -0.31828501256701    0.23244697336253
O           0.14078053617469    1.74829593625985   -0.80185719006348
O          -1.33926702364120   -0.14005441985029   -0.47501940054807
O          -1.76687373181239    1.79882309631633    1.31788977921753
H          -1.49284183031210    2.58450130140521    0.83599326322037
H          -1.77939238650859    1.09019783122722    0.64759273454695
O           1.72672700959188    3.03921208963388    0.90172838787098
H           2.61217493417508    3.03728093412710    0.53587779120576
H           1.14397681702693    2.67787259763762    0.20117800478033
O           0.21471014942943   -2.84303895886757   -2.43524374624901
H          -0.34340323701793   -2.94909375221732   -3.20799168334858
H           0.42304974558330   -1.86955585035296   -2.39175044805428
O           0.59112755865297    1.05625411663339    2.31642738548491
H          -0.34463706733313    1.33178413875931    2.17280320246283
H           0.84845563415763    0.21767430381040    1.10631538416648
H           1.11709360149991    1.84609137886106    2.07608109167793
N          -0.64860031027866   -2.51000515900229    0.01174323100636
H          -1.26395578115492   -3.14762288852422    0.50628365935714
H          -0.36246051659581   -2.85817159312844   -0.95153616241664
H          -1.09665527995493   -1.51032520891533   -0.17426418674862
H           0.20022568717003   -2.30408629840369    0.54157613397535
