    23
        -45.37182632  Gyration_radius:  2.39869570502 Dipole_moment: 5.921
 S          -0.87435665477106    0.17112998115737    0.21218452898013
O          -0.00962475126697   -0.67467785914301   -0.78915377555841
O          -1.98810245560269    0.66059941582748   -0.56468454105781
O          -1.22151324442411   -0.65147238732076    1.34240699436646
O           0.02390808961753    1.29127565636138    0.60903625321709
O          -1.57245640237291    2.22529572356939   -2.57604158794389
H          -1.84576690360561    1.56511990602560   -1.88150349141474
H          -2.07592204617087    3.01874597265348   -2.38422013445051
O           1.30672048991220   -0.06318782509619    2.52613820521256
H           0.87721150209231    0.56757009155073    1.91841111246659
H           0.58073740490796   -0.46875645238251    3.00887952159862
O          -0.49239109629513   -3.19791108349562    1.60169338689118
H          -0.85703618829694   -2.28799443624198    1.59725194457555
H          -1.10687234916393   -3.73124110995707    1.09588217081216
O           1.66275044839701   -1.91264122185394    0.63889135952550
H           0.68826929186977   -1.20687327274871   -0.24780070359372
H           1.75724803401472   -1.27117936885569    1.38167521242746
H           1.07642402899475   -2.61155939321472    0.99373591322001
N           0.85272348526710    1.73831017601657   -1.72414720811894
H          -0.02999762189808    2.07871561274200   -2.20977843248965
H           0.57022150398254    1.66263640809085   -0.65214047285789
H           1.01709434195462    0.76960917192116   -2.00375394089339
H           1.66073108286360    2.32848629439370   -1.89296231491195
