    23
        -45.37156695  Gyration_radius:  2.50098097022 Dipole_moment: 5.866
 S           0.52056869249398   -0.64914904219441   -0.67290965645858
O           1.21549028592773    0.36763883065039    0.13841462112995
O          -0.46814220770723   -1.37281538528615    0.31160306478199
O          -0.34288789520164   -0.00706141683259   -1.66654002881038
O           1.41701591018183   -1.62646409067114   -1.22620166179834
O           2.86671777676789   -3.01492827259764    0.49300870518848
H           2.44485835654752   -2.49769420009483   -0.22871247196123
H           2.69887172991112   -3.93595995708664    0.28665085112097
O          -2.69680294873834    0.15094921149078   -0.42009250096715
H          -2.61152043993985   -0.55193737549989    0.22999894962935
H          -1.91478562071971    0.03106472737643   -0.99884915226754
O          -2.36403777629564    2.60870179198853    0.46727791929237
H          -2.57533587757869    1.66770689205836    0.22940493957806
H          -3.11012367036532    3.13053505384688    0.16788328412266
O           1.34970066537164   -1.51955787107780    2.11100109179649
H           1.98427551878545   -2.16227958577869    1.72479876385683
H           1.62144216878010   -0.66033279732063    1.75811599561319
H           0.10903291204731   -1.55680309086744    1.11002961100334
N          -0.02742984091313    2.37882357471760   -0.76810298558723
H          -0.29299752121772    1.65610591904411   -1.48092185776516
H           0.60849943016965    1.74217058169324   -0.18007738414525
H           0.45967445818386    3.17723209792297   -1.15901117797724
H          -0.89208407649047    2.64405440451861   -0.22676893937649
