    23
        -45.37156688  Gyration_radius:  2.50115445374 Dipole_moment: 5.866
 S           1.00796310059646   -0.33082431120865   -0.13836269607898
O           0.63523912367648   -1.29975883446984    0.89480473265938
O           0.04252822911648   -0.63385634158271   -1.34105227801626
O           0.67992496383579    1.03888869868899    0.29882240262142
O           2.36493234173110   -0.45910804085987   -0.59343919744837
O           3.09060869074513    1.08303602241696   -2.61320947274671
H           3.44979360567260    0.48911476961379   -3.27449939663697
H           2.95121411916655    0.53522560679858   -1.80889673670168
O          -1.84186281841046   -2.00969418584922    0.20178552265492
H          -1.84017037584772   -1.80291795271291   -0.73691768946337
H          -0.90397118078444   -1.90502601180440    0.46674817905865
O          -3.06320954222718   -0.28643461354170    1.77586709094037
H          -3.66880712051181   -0.77823093572391    2.33262567428919
H          -2.71232580165931   -0.93678173117790    1.11211110844407
O           0.49522546937423    1.67600182868922   -2.35277398304530
H           1.43309413840590    1.60758969284341   -2.63676115938778
H           0.12121143111622    0.19280066660832   -1.90218279749170
H           0.53633337999383    1.95729068385409   -1.42764887379696
N          -0.57574037731185    0.39261259863468    2.40070778686139
H          -1.61400510347286    0.26375533452658    2.27281381856827
H          -0.32881718643184    0.76994560832168    3.30856533314551
H          -0.10030700287068   -0.51586049740788    2.17768067676079
H          -0.15885209390053    0.95223197534350    1.58321196480936
