    23
        -45.37118587  Gyration_radius:  2.48015641608 Dipole_moment: 5.855
 S           0.80297615349988   -0.75280642091755   -0.05941275596633
O          -0.19480897853954   -0.60509954516144   -1.13535401655137
O           0.15624378304066   -1.23130199775395    1.16480693907322
O           1.94918136005831   -1.51838358883737   -0.46913302951775
O           1.27754042985385    0.70079804423667    0.29946019063003
O          -2.85536193077225    1.28333555352895    1.64463787615312
H          -1.92697981784766    1.30901491625641    1.99744622535535
H          -3.43042759893515    1.33403053023193    2.40968409143119
O          -0.38141620799903    1.01545835032737    2.50838346700440
H           0.24809202585864    1.62092406585910    2.10695767417321
H          -0.12285295074666    0.14006128374128    2.15127189649171
O           1.80549671184060   -0.78639455297945   -3.00288206786014
H           2.03383494725920   -1.29018847330367   -2.19646972389295
H           0.85641107047556   -0.64375024245315   -2.90314717858527
O           2.76848022905557    1.31424619489640   -1.73002730473701
H           2.44547286673688    0.62706158466659   -2.36885487056569
H           1.83771794946372    1.01722048963750   -0.46498440240308
H           3.66245745302054    1.05274113838090   -1.49824241735669
N          -2.24487830456565   -0.92842572920288    0.30760913399167
H          -1.58761488600806   -0.68482703969185   -0.50999541718569
H          -1.49964854789074   -1.29954504605290    0.94667039513658
H          -2.65164840576243   -0.05870127013124    0.74029880259141
H          -2.94826737111149   -1.61546823528144    0.06127650258572
