    23
        -45.37779398  Gyration_radius:  2.37692765214 Dipole_moment: 6.134
 S           0.43073561821295   -0.53289615249493    0.70445289455873
O          -0.54692912817831    0.19569357431164    1.50653666290614
O           1.65256931373978    0.21650927474093    0.50238180902615
O           0.78649885764244   -1.85142226814607    1.42606193793883
O          -0.16727578193141   -0.89101042299256   -0.60273168015162
O           2.84953734433627    0.93833267403179   -1.72044309883802
H           3.34140025916434    0.18669863750725   -2.05535111501787
H           2.55934018672952    0.68439118672555   -0.81261544220681
O          -2.55194925621787   -1.88404647847761    0.04523629432651
H          -3.10391545127649   -1.09947866404571    0.04252679050937
H          -1.67348029446630   -1.59839358876597   -0.28098763770918
O          -0.10591718382511    2.52051036740443    0.37761836816148
H           0.77734389146930    2.71647012116854    0.70177023339416
H          -0.37597406222507    1.71449360994061    0.87995678771392
O          -1.52078921371331   -2.09970564123115    2.52361974071590
H          -1.46190582220786   -1.13310440780827    2.57020035170976
H          -2.05317495424651   -2.27668960579313    1.72041508711908
H          -0.04623969525443   -2.12652646601928    1.91467233938443
N           0.22711042334509    1.28227489885695   -1.93166854694777
H           1.26123954474056    1.26524002136129   -2.10651034563095
H           0.04469817650435    1.94365750569616   -1.12147401773735
H          -0.31375156705908    1.50943732769355   -2.75857062542925
H          -0.00917122528399    0.31956450633657   -1.52509676779580
