    23
        -45.36875012  Gyration_radius:  2.38805585273 Dipole_moment: 8.650
 S          -1.13921227195960   -0.37161710512529   -0.03670821867976
O          -0.32990155510498    0.57926221284512   -0.80396867103918
O          -1.77204343894918   -1.35164184716817   -0.93036766351573
O          -0.10097717791419   -1.25217495734682    0.76457838259880
O          -2.03659247515990    0.25849215341499    0.88511203368069
O          -0.86881170581114    2.18529214810262    2.33491874920766
H          -1.50463352867422    1.58682321165373    1.89814050663488
H          -0.52412166312337    2.74581389201822    1.61234845705413
O           0.30915268676702    3.04402648513597    0.04722710571740
H           0.00733349990984    2.19863082950396   -0.34022895009656
H           1.25895123763751    2.96001556315276    0.15140085705282
O           1.32507108261306   -0.40208571751782   -2.52804519829106
H           0.75676364757302    0.05800447449585   -1.85116365966507
H           1.08042841824504   -0.01657856493756   -3.37134939548377
O           0.88890689205169    0.30347663467130    2.55007890251068
H           0.31127745905530   -0.65012057053496    1.45842890934206
H           0.26641609589631    1.09677956206020    2.52308351459666
H           0.76447106291510   -0.08840176766410    3.41662650792988
N           0.28421184133058   -2.62180224482077   -1.57609594080596
H           0.82515598412402   -1.86985514158944   -2.08743421428790
H          -0.70873190495813   -2.13127084160414   -1.34246616282884
H           0.19548723196063   -3.48042367959584   -2.10866961884023
H           0.71139860157270   -2.78064472914802   -0.66544624279194
