    23
        -45.37202089  Gyration_radius:  2.35762386284 Dipole_moment: 5.558
 S           0.88530834053866    0.52809302778432   -0.34392579069382
O          -0.19476297097364    0.86269512965324   -1.29207534806426
O           0.37689655014518   -0.75694593507109    0.41600319334505
O           2.07146241201672    0.07283897056438   -1.05371308851322
O           1.10710088650165    1.56475724698535    0.63057091671001
O           0.57930041580121    1.30002567025707    3.23035958458094
H           0.84470864756460    1.50201988936719    2.30892536304370
H           1.35070504040262    0.91646774786574    3.64956137391067
O          -1.72130188816967    2.15235119080878    0.47228100535239
H          -1.07649067671032    2.73882497108355    0.87793353306912
H          -1.25388664099425    1.75566941503204   -0.28820556898550
O          -0.32553388788004   -2.89985196433209   -1.08119374704879
H          -1.23117824105067   -3.10333884951619   -0.83978869494369
H           0.00015065933721   -2.27153340566575   -0.40634865450092
O          -1.42311259178338   -0.00064122334706    2.00047504543747
H          -1.76744999224807    0.77529191524682    1.49644435582936
H          -0.37963730743150   -0.48953828389416    1.07779376072005
H          -0.85430978461086    0.39376036530047    2.69322484498354
N           0.59667312062838   -1.04204639172856   -2.76934344408817
H           0.74272998872921   -1.07981207806825   -3.77183803145522
H          -0.01097942461855   -0.23596233734689   -2.43891993215540
H           0.21743001016590   -1.92662111508208   -2.36766429694120
H           1.46617734463607   -0.75650394589712   -2.20055638959429
