    23
        -45.37141688  Gyration_radius:  2.27798100402 Dipole_moment: 7.140
 S           1.17639659941687   -0.61099404526096    0.19822349340949
O           0.15202919583074   -0.51049241219693    1.40386535850081
O           2.29158429420995    0.25476864570371    0.45664873550327
O           1.48173678346226   -2.04296087026722    0.18193450950192
O           0.42637536484667   -0.22804000742370   -0.99952598563929
O           1.20956488300254    1.95839826736151   -2.35095283706229
H           2.13677144201599    1.80587213261894   -2.54205463934078
H           0.87297375850293    1.11817888772069   -1.98195686403887
O           1.02094605849106    2.61567850988628    0.26583661117765
H           1.60950414917383    1.85873826549458    0.45603210242452
H           1.02417275441301    2.67480132554076   -0.71036068831088
O          -2.07072234972477   -0.67313674802075   -0.51469610454059
H          -1.19656983173410   -0.43098255621427   -0.90754501834606
H          -2.26658297299913    0.06528116598224    0.07371758839580
O          -1.23028491527714    1.66630815029181    1.08749340622192
H          -1.43291976025206    2.13850512212715    1.89737336884780
H          -0.43100069734675    2.13951016516465    0.69573014625848
H          -0.36305838410564    0.33669360485590    1.33162875518055
N          -0.90548748596803   -2.85518908555631    0.39442485387019
H          -1.47748008133747   -2.00453323447816    0.07896361348110
H          -1.12304764637655   -3.66976916443923   -0.17176265414062
H           0.16919849969025   -2.56617165315594    0.27820553952354
H          -1.07409965790513   -3.04046447574901    1.37877667910321
