    23
        -45.37141680  Gyration_radius:  2.27796996352 Dipole_moment: 7.137
 S          -1.14986448830640    0.57758950709621   -0.37724836119251
O          -0.82553281132983   -0.88857419583178   -0.88529920407169
O           0.09586523758675    1.08860524017508    0.19777626569993
O          -1.46284016085556    1.26737575867507   -1.63038598814468
O          -2.21957748959174    0.51725780150729    0.57773097836610
O           0.14074498832241    1.69867010285936    2.81430285151149
H           0.22692022616953    1.57198653607979    1.84892298813252
H          -0.58487671792369    2.31453086868318    2.93225666731958
O           2.03713081104787   -0.21385301019071   -0.89893874812931
H           1.46759281491458    0.39201305187738   -0.36445925431007
H           1.95415552939531   -1.06069399100830   -0.44527974824110
O          -0.92535279403786   -0.77303307581579    2.54935232999202
H          -0.45810685477704    0.00453854901969    2.91472934063956
H          -1.56093949728205   -0.38673406720225    1.91509412458814
O           0.62021162412237   -2.05369984114012    0.93185007553857
H           0.42784198725438   -2.98345349400574    1.06782583224940
H          -0.30741789274994   -1.37377239911824   -0.18930477199119
H           0.12457544468198   -1.56907806521173    1.66370823755362
N           0.49804042613902    0.37246212301495   -2.95619710217877
H          -0.37768411135403    0.82142943004727   -2.42365435632866
H           0.92877133625089    1.05079064187095   -3.57737482098983
H           1.18326534952188    0.06204159273762   -2.19155180522029
H           0.16707705279946   -0.43639907411536   -3.47385553078528
