    23
        -45.37168514  Gyration_radius:  2.27556632015 Dipole_moment: 6.337
 S          -0.01488336141851   -0.51899226253518   -1.11568583388655
O          -1.10551844447037   -0.00060552806417   -2.07634578666448
O           0.93438762098686    0.56242176471560   -0.85590385911686
O          -0.67555631472879   -0.94472240356165    0.12025010675657
O           0.68676721490916   -1.63528624441198   -1.74437252476068
O           0.19178694890648    2.11215793460335    1.06123522354569
H           0.51847871637439    2.99723593099656    0.89087098942819
H           0.51047359378455    1.55120715394161    0.30876415187255
O           1.22950966414752   -0.54387036748834    1.83653254584778
H           1.13916930087957    0.41259844893840    1.94357052616249
H           0.40417253883973   -0.79396546155126    1.35417172316127
O          -3.25341732042132   -0.42566922670502    0.59397996617977
H          -2.32224516874313   -0.72235868055074    0.53823790955365
H          -3.74503774053806   -0.98300598623821   -0.01155774359479
O          -2.11699440071082    1.75313204214101   -0.49829855444680
H          -1.54471498583676    0.76075866851066   -1.56656986796545
H          -2.72203777346655    1.13678449292006   -0.03449767836135
H          -1.41922443783437    1.95834141665004    0.15061884415947
N           2.69926258365068   -1.35352193612988   -0.17281821870503
H           1.90495785799560   -1.58614298654880   -0.88639145233816
H           3.29536874716449   -2.15457896112737    0.01417792854360
H           3.22333186944302   -0.57556887777085   -0.56598943046414
H           2.18196330107998   -1.00634892067209    0.71602105510611
