    23
        -45.37141686  Gyration_radius:  2.27792931665 Dipole_moment: 7.140
 S           0.00815216477742   -0.62776489527805   -1.18461513509751
O          -0.62500882629983   -0.91194513357169    0.10458408939049
O           0.82999500705876   -1.75932013493310   -1.61832243168565
O          -0.91751302519101   -0.12761649955348   -2.16079955909260
O           1.10539690448419    0.47951374078293   -0.89607247752611
O          -2.06080332029661    1.80100344760719   -0.67792301821795
H          -1.69851746421933    1.21678104198206   -1.37289563415109
H          -2.67810311788955    1.22380697504651   -0.18582850819601
O          -3.24509634328704   -0.38615296933654    0.38511455739181
H          -2.31115546398902   -0.67448464963269    0.38303239531969
H          -3.66630777101792   -0.86277585674917   -0.33260647540516
O           1.06729922913698   -0.27217550472058    1.94708932643079
H           1.00249349160054    0.68938483139641    1.91418348460695
H           0.28500146786786   -0.57505883915306    1.42412627705513
O           0.06212702007344    2.22432374045326    0.72160130414598
H          -0.84252996809446    2.10961186461766    0.29193441407919
H           0.71916258495306    1.18477103889080   -0.31151578208819
H           0.31090854676069    3.13462976255967    0.55011734112140
N           2.56170879528056   -1.58580555192103    0.21882216150057
H           2.05404870404257   -1.01845541683727    0.97432424922897
H           1.82190681724961   -1.73286932689101   -0.60752833180132
H           3.34093927815972   -1.04989500648491   -0.15177454101892
H           2.87589528884597   -2.47950664826296    0.58495232399925
