    23
        -45.37333302  Gyration_radius:  2.3402249863 Dipole_moment: 7.583
 S           0.07350158871882    0.54734054755263    0.81469907302229
O           0.03723554908430    0.52870408088723   -0.65221386072772
O           0.33540261699283    2.01153972558620    1.25386402645110
O          -1.25037496739904    0.19275128353503    1.33577264921732
O           1.12983021566756   -0.29247816625408    1.34361464415056
O           2.35342792437986    1.50645203446429   -1.50792081356867
H           2.13368454192217    2.27875790014933   -2.03158236982416
H           1.49992970572619    1.08905918332745   -1.26327764001981
O          -0.18421529650006   -2.53841487066851    0.86042636425692
H          -0.81642383949444   -2.52228365060430    1.58134496715081
H           0.43227618247505   -1.80160665192925    1.05240021206856
O          -0.86326445211664   -1.76960774998292   -1.60684699252955
H          -0.58514499653906   -2.31592752072650   -0.84068852506714
H          -0.33067817043470   -0.95291755137111   -1.50279981906602
O           2.88167774007533    1.75027114941867    1.11887474778829
H           2.95769989788802    1.72846964739297    0.14234962189108
H           1.33702292301580    2.09266567507187    1.27359471731500
H           2.70612170393148    0.83293471211286    1.37748857803778
N          -2.81604544246987   -0.47278014984291   -0.56019651097663
H          -3.07350458022293    0.33046620776253   -1.12402632278612
H          -2.10876265235398   -1.11058520590521   -1.10778611199748
H          -2.21042010734673   -0.13573097775522    0.29067872289944
H          -3.63897608500123   -0.97707966222147   -0.24776936768455
