    23
        -45.37333304  Gyration_radius:  2.34010358712 Dipole_moment: 7.582
 S          -0.60054327152379    0.33319442965326   -0.70641889070506
O           0.32521060393351   -0.06154508179045   -1.74959262207879
O          -0.47309547060497    1.74655372380561   -0.33755601663824
O          -2.04861214110575    0.14961978221350   -1.23086137044267
O          -0.46098457071430   -0.49549298129939    0.49663636925826
O           1.76875571126114    0.02532155462075    1.82414958856037
H           2.27958006105688    0.34121171264388    1.04817641948040
H           1.02552685297193   -0.46687257614865    1.41581087655763
O           2.40744705813896    1.05531131440304   -0.55711837746824
H           2.24481385341904    1.97761175411861   -0.76336551879217
H           1.74666655778172    0.56110754089556   -1.08532818309391
O          -1.03863770291260   -2.99340570921518   -0.19501318865040
H          -0.76339421790330   -2.10503806733285    0.11744947526989
H          -1.78491385727606   -3.24957087586451    0.34941847769801
O          -1.43628902967539   -1.91164470961787   -2.62599919590471
H          -1.99539700384371   -0.64799174451467   -1.84008574962964
H          -0.57661368926312   -1.47463291906938   -2.72162893332240
H          -1.31992855568881   -2.54075224710328   -1.88395896915585
N           0.13438790818253    1.98217821896852    2.12497865686418
H           0.49334014341881    2.89937126532644    2.36794049842864
H          -0.64504695873610    1.72642644136744    2.72202891387990
H          -0.18911094274310    1.94741025924893    1.07682269876688
H           0.90683867182504    1.20162892468908    2.15351503111895
