    23
        -45.37878058  Gyration_radius:  2.33034785226 Dipole_moment: 5.076
 S          -0.68813692174370    1.23709314771313    0.17647058207677
O          -2.03950512321377    1.16699109579024    0.66881240443722
O           0.29747034083004    0.78248003795447    1.17816864308264
O          -0.51723673897032    0.44753919047077   -1.05116684738208
O          -0.35435645885104    2.71071289718299   -0.16253020529332
O          -2.83183863375720   -1.24981378594957    1.23276139665846
H          -2.64630211438194   -0.28579930104674    1.09722295149929
H          -3.30194114423243   -1.53182051052877    0.44549743473454
O           1.91092826592182    0.51101380323434   -2.03009510231018
H           0.97509847200956    0.51228516983475   -1.71464682986389
H           1.89478056139967    0.89574007927230   -2.90785555134670
O           0.36195406853570   -2.04892586270550   -1.12845817893143
H           1.25324761291342   -1.87731677446669   -1.44599018031486
H          -0.10314982371642   -1.18819811913603   -1.22771553991208
O           2.19199287600226    2.27365939346196    0.01957026157712
H           0.64081256778159    2.74268588835882   -0.15281805052538
H           1.87219761589818    1.68907381220759    0.72432757852442
H           2.35587041687660    1.68751835948616   -0.74505275934748
N          -0.24141446985864   -1.72740640560872    1.42911909257239
H           0.13860642090478   -2.25080137464653    2.20986598145941
H          -1.29906356687096   -1.71413850898307    1.43539919897297
H           0.04749400545413   -0.69447142501805    1.45383100221178
H           0.08249178106704   -2.08810080687757    0.49528271742354
