    23
        -45.36638245  Gyration_radius:  2.37527568042 Dipole_moment: 7.414
 S           0.20635146310044    0.84947837192728    0.79443678177926
O           0.71792904929231    1.28448428706912   -0.58221041691540
O           1.00711937630735   -0.21326437919697    1.32008335721907
O           0.37798283149911    2.11150771190767    1.64225170580102
O          -1.20522304628124    0.53674662766038    0.67539403195585
O          -1.45348804824982   -1.68197274457605   -0.72425845303046
H          -1.44650016082590   -0.87919219156347   -0.15523901058653
H          -2.36296230230212   -1.82489979139813   -0.99160023663021
O           2.50525662948931   -1.99581667075608   -0.38208494737039
H           1.87878456143712   -2.61092414624183    0.05446985094690
H           2.61517541983205   -1.28537609694930    0.25921178062509
O           0.39047498000086   -2.92256152153586    1.01498084204822
H           0.53751717585310   -2.06977432223945    1.44849245354535
H          -0.34626531213584   -2.77314939043487    0.40719246882601
O           0.81424697942067   -0.77680650770221   -1.95884479148668
H           1.54543461600919   -1.28457607786760   -1.50257918620491
H          -0.01263507221742   -1.22980759026329   -1.70988835398498
H           0.78839852771016    0.43978841884651   -1.23931930989280
N          -1.38551535579649    3.36493487099574    0.27898102178118
H          -2.03235439070858    4.08155819987631    0.58027265815901
H          -0.99463671942406    3.62228543598763   -0.61756182627718
H          -0.27087209443275    2.77661150231668    1.20781539070307
H          -1.87421911758339    2.48072599414603    0.18000416897851
