    23
        -45.37202088  Gyration_radius:  2.35754192695 Dipole_moment: 5.551
 S           0.63877974577535   -0.58313201353567   -0.65925446066290
O           0.36459503905472   -1.28301804149706   -1.90553581952382
O           0.95751118498197    0.83462817224803   -0.91532152389527
O          -0.75344131776775   -0.56099781240727    0.08127030080902
O           1.59651097174946   -1.21710252941716    0.20922735409289
O          -2.80320114901520    0.71006393789197   -1.14728908608960
H          -2.21336727924167    0.11684192553370   -0.64094390398476
H          -3.10967678548247    1.37353185049581   -0.52610424319293
O           1.92552563742082    1.34476194455933    1.51543272923921
H           2.53058616519534    0.60661140846473    1.63060976149349
H           1.64796542443691    1.29606687446510    0.58008314966525
O           1.04307798341851   -2.04260384339392    2.68325805823064
H           0.69730566077324   -2.93430737400250    2.62527670584840
H           1.35365904930170   -1.81405374253001    1.78236368444866
O          -0.32251690085239    0.25522393139581    2.42024168403901
H           0.46079556909906    0.83123665140745    2.24926111142095
H          -0.62198200411381   -0.21781496851319    1.05421361915824
H           0.05790057256034   -0.56537020466869    2.79557623776183
N          -0.71851476128796    0.80304325594247   -2.81973355852639
H          -0.00706931328927    1.19898794862822   -2.13779441566329
H          -0.40680992956168   -0.22283605957769   -2.71079920918851
H          -1.66813205518635    0.90380617337859   -2.40041019479981
H          -0.64950148796058    1.16643253512849   -3.76362798066890
