    23
        -45.37082628  Gyration_radius:  2.42324686093 Dipole_moment: 5.945
 S          -0.56282075999077   -0.30836074227301   -0.78170377045504
O          -1.81568024607407   -0.57269906432316   -1.43308804333610
O          -0.23809429601337   -1.26138820250863    0.27940075649984
O           0.55876547957441   -0.16336674776651   -1.71684578528420
O          -0.64931458630953    1.10398980914668   -0.08250319000089
O          -4.04595060439002   -0.61156662525594   -0.01969032816294
H          -3.27768588730299   -0.71213738764133   -0.62447417654921
H          -4.64389217109710   -0.00217234808922   -0.45548673631575
O           1.87668352931774   -1.03682381096496    1.74478920499123
H           2.02020913561228   -1.89239257020191    2.15239130350017
H           1.00992916661157   -1.11060945663917    1.25999408779002
O           1.68463478661104    2.30856080050550   -1.05774157790952
H           1.08847527118828    2.68669574697429   -0.40590338580845
H           1.13760064231811    1.66200522807199   -1.53498516980394
O          -2.12620387200309    0.04625593908788    1.72813648940978
H          -2.97599327647186   -0.15401272110167    1.28024210848323
H          -1.56774919197465   -0.72678966579806    1.55933499531782
H          -1.26091001243061    0.90068394827031    0.67834834881763
N           2.80604944797534   -0.04359192623456   -0.50641452438029
H           2.65206297250902   -0.43133378700795    0.46143414416816
H           2.76953209707003    0.99615798652986   -0.50635724261192
H           3.64836190499424   -0.39676472544149   -0.94632241268374
H           1.91199048027692   -0.28033967734774   -1.07255511567868
