    23
        -45.37622503  Gyration_radius:  2.25351165613 Dipole_moment: 4.592
 S           1.24510790420940   -0.21902143111282    0.42699703482489
O          -0.13991525187707   -0.54480350845231    0.81051468243711
O           1.81633502411337   -1.28362478070741   -0.38374126519428
O           1.13420730805336    0.97582030198172   -0.60214759207192
O           2.03038299710593    0.21003653895422    1.55288045048309
O          -1.65670187829875    0.57782279754960   -1.04383215406094
H          -1.52859972632814    1.52516230067415   -0.93868474243034
H          -1.28635774082310    0.18245704989173   -0.22596738455191
O           0.04018107051079    1.44217679179754    2.76273134334364
H          -0.58234124228632    0.70931852330919    2.74684273790380
H           0.88957946803644    1.03904216866804    2.47379574432041
O          -0.79237380752704   -2.93832193538367   -0.15393198706892
H          -0.04177359012788   -3.49511461101940    0.06372062634652
H          -0.64979908988108   -2.10653679914907    0.35057595951761
O          -0.36887718642824    2.78031409516252    0.55477835682860
H           0.04234581071530    3.64121419110692    0.65211633593600
H           0.61731230969270    1.71134367616970   -0.18882070162806
H          -0.31942519561149    2.35166821609433    1.45469984858268
N          -0.09167795794553   -1.30766000642675   -2.11123106890874
H          -0.67490907235827   -0.45204166881527   -1.92551470826413
H           0.05900689061855   -1.47059133090819   -3.10074821436222
H           0.82302539995960   -1.21969327760339   -1.55273467957471
H          -0.56473243352350   -2.10896729178177   -1.62229862241529
