    23
        -45.37202096  Gyration_radius:  2.35735650347 Dipole_moment: 5.559
 S           1.06198397474568   -0.06726607815155    0.22750465626384
O           0.96125293587260    0.54046233223434   -1.11333206991975
O           1.91989683944011    0.72971760245990    1.09157804085819
O          -0.37444872247251    0.09644804551052    0.85806763373616
O           1.36944041876052   -1.47312524698018    0.17619377782373
O          -0.32821581765008   -3.39181154892044    0.91445203541054
H           0.38904707137605   -2.77870444086641    0.64998312484384
H          -0.22416528229431   -3.52954826969173    1.85686790994177
O          -1.41251036082689    2.59293492800668    0.97942464131998
H          -1.13497361363881    1.66605168208013    1.12118872242863
H          -2.25077854054619    2.55135101858276    0.51516509876884
O          -0.12335784931399   -1.58671498379996   -2.29944892040133
H           0.46675483157077   -2.28414893744486   -2.00007865820012
H           0.30830991218671   -0.75689921942805   -2.01791953639277
O          -1.87206481851191   -1.55951408116180   -0.29876036967282
H          -1.03110790843386   -0.56625534695040    0.39852802850760
H          -1.42332336830502   -1.59823325279763   -1.17716016260249
H          -1.57560456412688   -2.37195767950444    0.16070648536809
N           1.05838194158235    2.82577054656744   -0.01634460918507
H           0.96783833641841    2.10555379782491   -0.79205798401084
H           1.55164127047940    2.16750006659478    0.67927346270263
H           1.59095854999402    3.65195909720205   -0.26440417385501
H           0.10504476370114    3.03642992864786    0.35057289626434
