    23
        -45.37273094  Gyration_radius:  2.3287302254 Dipole_moment: 6.067
 S          -0.77401830721427    0.27379396331719   -0.39600136704251
O          -1.39083716197931    0.78924899085564    0.83119722666182
O           0.00238813758570   -0.92967525585403   -0.10407387172443
O          -1.96498535297170   -0.12380321483894   -1.30596930676178
O           0.02034904987204    1.28204455445742   -1.08136899432007
O           1.43565014366871   -0.55930403122588   -2.37972502580415
H           1.21430677878536   -1.13608812506288   -1.63515712080087
H           1.18927646356883    0.32309854706675   -2.04844810710930
O           1.20831883178331    2.00396815076899    1.18673902078196
H           0.47572363360345    2.43586356345866    1.63097398698024
H           0.88242475957102    1.83872978930029    0.27949580075755
O           1.67083547007823   -0.53554020221282    1.90319133313989
H           1.29716608362407   -0.84227484051378    1.04933946711581
H           1.75927825781040    0.43338841438033    1.77326636252537
O          -0.89318494451966   -0.66249407327639   -3.61056558095881
H          -0.94002319987775    0.13226839725880   -4.14653021717027
H           0.04844607990166   -0.73809738218415   -3.31016402088262
H          -1.61573977735754   -0.38139909485936   -2.20606445493810
N          -0.74354261060805   -0.73718942521379    2.75721149143801
H          -1.08410143667765   -1.67911675319887    2.59316904215478
H          -1.12210904380029   -0.08185415580346    1.95965260672633
H          -1.01215409326855   -0.40472433536757    3.67717238910907
H           0.33653222844185   -0.70084349124755    2.58265932011969
