    23
        -45.37541735  Gyration_radius:  2.31591284023 Dipole_moment: 6.793
 S           1.04888539584334   -1.24129808176382    0.49188378486497
O           2.25181908262576   -0.90715560419034    1.21090961674444
O          -0.17047862086534   -0.98801129931237    1.28369169071784
O           0.98156423850499   -0.14043817690151   -0.67421838522127
O           1.01596165469865   -2.53342555486511   -0.14588795938543
O           2.42118050386017    1.67196803177344    1.07147405012225
H           2.47626540945917    0.69095029918227    1.22282341823368
H           2.70544630774193    1.78734428947849    0.16222637333462
O          -1.58320973560364   -2.67886194603586   -0.31804867392263
H          -1.72673097417234   -2.28971402986000    0.55212078933397
H          -0.61273574400793   -2.85577318549297   -0.31863911834949
O          -1.43783595413799    1.94706939392828   -1.03619053955879
H          -0.86366780918901    2.33981407996606   -1.69656652209141
H          -1.58235675081982    1.02733556824247   -1.32127788602020
O          -1.33028905349152   -0.66321318680636   -1.90989158553152
H          -1.27671185799218   -1.02641175138002   -2.79582960772673
H          -1.55507773202394   -1.44220609031906   -1.31181493940164
H           0.18448625480429   -0.35845408310606   -1.19955561187045
N          -0.20462739931108    1.56324619711783    1.36121467831497
H          -0.60003696747452    2.00896319070411    2.18174026979958
H          -0.25557061377045    0.48328755201724    1.43353603760022
H          -0.71640420526676    1.83234625423989    0.49334887043882
H           0.83012457050764    1.77263811365558    1.26295126958754
