    23
        -45.37541727  Gyration_radius:  2.31603064892 Dipole_moment: 6.788
 S          -0.35917726687016   -0.27113322250640   -1.63694421196825
O          -1.05904472891012   -0.51947779282059   -0.21400848613555
O           0.93635033836178    0.34328509446417   -1.28769577773308
O          -0.21108522255379   -1.59614801402933   -2.18304168173222
O          -1.20436628803331    0.63800221867883   -2.36956125386145
O           0.24092871759737    0.33026653315784    2.60065155680910
H          -0.49137058105658   -0.16838807477858    2.96836859180494
H          -0.16015761410979    1.02923931804722    2.05422317604571
O          -0.20293966933803    2.81769862571857   -1.34385342067424
H           0.70284954296375    2.48845643211292   -1.36247564442195
H          -0.68815610513036    2.14798524115763   -1.88174615124032
O           0.22154350073292   -3.12107339629483   -0.13691682313144
H          -0.65822310169723   -3.17233167716231    0.24283213000193
H           0.08652372410882   -2.66102487854118   -1.00785650306732
O          -1.18955867103674    1.92214345077743    0.86644711319655
H          -0.76494801627575    2.37301721199015    0.07180907878946
H          -2.06020508512014    2.31532312519052    0.95034806104799
H          -1.19877349945787    0.36933269839231    0.17231921907351
N           1.63911203072507   -1.06198308916550    0.72403704076820
H           1.46110773877756   -0.44312382056911   -0.14755058695954
H           1.13446764169695   -1.96970097923496    0.51042923369837
H           2.63031503388777   -1.21232627810275    0.87619513086873
H           1.19480759073623   -0.57803872648553    1.53399020893828
