    23
        -45.37876344  Gyration_radius:  2.39254978878 Dipole_moment: 5.193
 S           0.60734885603671    0.58251626923017   -0.38371697154524
O           1.22649697383872    1.42671477564449   -1.52105551771816
O          -0.24915415328320   -0.44245407167740   -1.00725848417350
O           1.68297124115061   -0.01944737986041    0.37649377454170
O          -0.20315980638119    1.46545697614399    0.45779115855332
O          -0.21025306469726   -0.06377698161564    2.58270836226682
H          -0.31620142253658    0.60838860737100    1.86754546257027
H           0.71885565690303   -0.00379252677904    2.82022313527075
O           2.17764111523298   -2.58122039774149    0.64782443244038
H           2.12324880513250   -1.61996076906657    0.43080872647157
H           2.93710739077508   -2.67976431073293    1.22400584660656
O          -2.10982395822978    2.67130387491494   -0.92318400018379
H          -1.98456250317135    3.61225245299580   -0.78907517276698
H          -1.46834207917378    2.22578189557824   -0.32683599143251
O          -0.91537309073274    1.35379500355751   -2.92930331677231
H          -0.99758252639253    0.46360288309767   -2.55765344614467
H          -1.50220998680606    1.91429687341728   -2.37707762444914
H           0.48810949351571    1.51663450633880   -2.19668016350346
N          -0.42635509644127   -2.12354371433961    0.93490282844937
H          -1.19209583201190   -2.78670835962242    0.97811559675512
H           0.51102923640219   -2.58334601715893    0.92101724454246
H          -0.45544507354957   -1.51973775830767    0.04567235836991
H          -0.44225017558180   -1.41699182138346    1.72473176184744
