    23
        -45.37303844  Gyration_radius:  2.37721682821 Dipole_moment: 4.337
 S           0.84215368286748   -0.69221379216766    0.06797951699375
O          -0.57897243424014   -1.01976454674512   -0.19008471204273
O           0.93202769418841    0.35516447502243    1.08642627539869
O           1.51709233215136   -1.96677189405905    0.62511995941512
O           1.51592146979957   -0.34581638684544   -1.15939881798773
O          -1.23752305011524   -0.40137540368075    2.38187272986059
H          -0.45412899450144    0.09639459857819    2.07223849241898
H          -1.59144936160767   -0.76886879446622    1.56246981688094
O           0.63912811592130    1.70853591901457   -2.52222369906248
H           0.45174661005549    2.25781404221899   -1.72956542293270
H           1.22605700559865    1.00289233060096   -2.16946445335303
O           0.08475901580231    2.56796920520302   -0.06668060678213
H           0.39911398168676    1.75219884390317    0.38766914734928
H           0.50705529647568    3.29745061964795    0.39029500419846
O           0.43996007257863   -2.34975584091172    2.96399135691680
H           1.04973736395634   -2.00460190876567    3.61968129404135
H          -0.30008982438477   -1.69373613498741    2.90001361228871
H           1.10294826681836   -2.18331199530591    1.50580393065470
N          -1.34027011243483    0.07504630497932   -2.36827369628427
H          -1.36957839648471   -0.59711110629788   -3.12777970465055
H          -1.03760514160587   -0.43084849662414   -1.44519215909529
H          -0.55242748886232    0.82500965955576   -2.54354875828330
H          -2.24565610365596    0.51570029213052   -2.24134911594986
