    23
        -45.37202092  Gyration_radius:  2.35700063132 Dipole_moment: 5.569
 S           1.03365533604545    0.14042276347796   -0.30778352017187
O           0.04302242913038    0.19948396758493    0.91816198354614
O           0.46828698010051   -0.88475520802056   -1.20581543213412
O           1.07279536898214    1.44617945381823   -0.91354134827846
O           2.28705012435332   -0.31755386382374    0.27298443298881
O          -1.32510536709349    0.71766417249276   -2.35667938140356
H          -0.77608532351178    1.47449807964633   -2.58039686048296
H          -0.69524359796559    0.03072982721816   -2.06407066612303
O          -0.41891525076368    3.50080837768604   -0.10014876337275
H           0.20184421401012    2.83512310174442   -0.46317840361924
H           0.05223848051247    3.94341227659331    0.60701525733398
O          -0.45431170850085   -2.10993720102018    2.23846550797502
H          -1.40554885333524   -2.22866294471975    2.20797287048021
H          -0.28711730824062   -1.18930148051283    1.95416738552530
O          -2.03558400687646    1.36771593287074    0.11993084397965
H          -2.01220125732311    1.10833404805877   -0.83225852405493
H          -0.83885386303891    0.66796784795946    0.62734058877952
H          -1.69901889682257    2.28735884061280    0.12904034839447
N           1.36821191576877   -2.66482174492088    0.36225588120497
H           0.70385751430510   -2.73877502571517    1.16302577979508
H           0.84930943283322   -2.25078167793659   -0.46676704114480
H           2.00234105398333   -1.80919266857026    0.52578946604816
H           1.86537258345205   -3.52591688451947    0.16448959472204
