    23
        -45.37013955  Gyration_radius:  2.33018916039 Dipole_moment: 4.366
 S           0.55728743652181    0.81289101928155    0.77888033877889
O           1.21640151228784   -0.00726943848515   -0.24890343753621
O           1.01470054897319    0.32316790846476    2.16595214910597
O           0.96162069804387    2.20792802537590    0.65373370459485
O          -0.89494464446208    0.66299247738973    0.68230503857061
O          -1.64581854697301   -1.90937298305368    0.76341788547178
H          -1.19246528664688   -2.20873405463133   -0.04918494608221
H          -1.56929550427177   -0.93598514700166    0.74002261823190
O           0.27379194736600   -2.35733507121736   -1.09428767522951
H           0.85209226609180   -3.01661469838177   -0.70560778188090
H           0.64306104633017   -1.49183212552696   -0.82228753401819
O          -1.66638236631283    1.71804597607949   -1.59040927241122
H          -2.29485053176335    2.40877533792517   -1.37315970492705
H          -1.47366202432394    1.25493490460409   -0.73675230422740
O           0.32594118313502   -2.13911577168379    2.42899681149976
H           0.80461702798001   -0.65969191830255    2.26174474044090
H          -0.01222243287378   -2.24983613033417    3.31972455400795
H          -0.47468160443599   -2.16038538545036    1.82072751461444
N           0.93463304403725    1.97797277242841   -1.86105035597549
H           1.05573521289697    2.39161489273664   -0.87405523976700
H           1.20615405878904    0.99260992536743   -1.63061632872134
H          -0.10589559472522    1.97732476949819   -2.03228459566822
H           1.48418256434151    2.40791473492468   -2.59690618888156
