    23
        -45.37303886  Gyration_radius:  2.37722945423 Dipole_moment: 4.342
 S           0.88985038622374   -0.42990873148029    0.47303947085962
O           1.63196758698794   -0.77428512799500   -0.71488672475327
O          -0.47213564564478   -1.00930126783491    0.42496524407636
O           1.62125152367727   -1.06378310491071    1.67857104473820
O           0.80575618163635    1.01418202330117    0.69706906867964
O          -1.39341822247983    0.89177966012440    2.14795778331233
H          -1.64705004057082    0.08258959997117    1.68683631757585
H          -0.63058832494049    1.20747522013084    1.62266277824192
O          -0.11647183812438    2.05714940781232   -1.53993242540037
H           0.22301984105870    1.68971895628047   -0.69102352238411
H           0.20762430163661    2.95861912051371   -1.57941251533582
O           0.70540026380071    0.01412084529741   -3.03123613988994
H           0.41174812662356    0.89381721671425   -2.70697738339913
H           1.31600211922596   -0.29107386206706   -2.32346760280653
O           0.38329808136181   -0.16315451111137    3.78467008558041
H          -0.39968636582072    0.24793337783358    3.33732594502607
H           1.15217442822073   -0.78427561784912    2.51260646768503
H           0.90428537816300    0.56209528263861    4.13573978798071
N          -1.14747774629817   -1.43947633768087   -2.00072467720110
H          -0.40764426082657   -0.84549953551650   -2.56158661134248
H          -1.07052800528420   -2.42324565459624   -2.23682169420564
H          -0.87719291475978   -1.29390941354887   -0.94972749799105
H          -2.09018485386247   -1.10156752602708   -2.16564718904792
