    23
        -45.37283610  Gyration_radius:  2.30716601737 Dipole_moment: 5.020
 S           1.01025210477588   -1.04368516142902    0.01915538477610
O           1.27596685906403   -2.11836924638683   -0.90144588506304
O           2.33347071562333   -0.65579995331928    0.73047265864013
O           0.52987474607382    0.16060522157046   -0.68669047714540
O           0.04464103997856   -1.40838722541370    1.06299542850816
O          -1.62163817749814    1.18286430106149    0.41098405061967
H          -0.79372800477578    0.86756262635565   -0.02691851070367
H          -1.40769410817674    1.20490383923773    1.34670784408505
O           1.22971029228071    2.66932443486795   -0.22467416864850
H           0.38005234220633    3.10574485589035   -0.32301985334393
H           1.09984949223541    1.76005466762155   -0.57007128139295
O          -0.79772126631016   -1.67024504387897   -2.43619468084225
H           0.01334247700144   -1.99335648582294   -1.97316152729231
H          -0.55574601870545   -0.79024107472076   -2.73806552847893
O           1.69363036752136    1.48808836950866    2.10799965594302
H           1.54308578989847    2.05422420978003    1.31203142880190
H           2.08608177668584    0.08941235294916    1.33502172784816
H           2.49638334122776    1.81217615743497    2.52144457409184
N          -2.16313026107005   -1.35986877774112   -0.19741745047244
H          -1.29337563751272   -1.53302361493378    0.43165924279856
H          -2.35551199476984   -0.34649854084019   -0.05097749192794
H          -1.79702266323888   -1.51993356361598   -1.18051264189513
H          -2.95077319250818   -1.95555236817435    0.03067750108522
