    23
        -45.36921573  Gyration_radius:  2.28820778548 Dipole_moment: 7.092
 S           1.33061803674795   -0.31314893306251    0.62886442233141
O           2.42948475755612    0.11009578924352   -0.19643727414025
O           0.30961967558978    0.76852280574901    0.71802031085710
O           0.58936009514822   -1.51116897113373   -0.09407736340033
O           1.64713127730869   -0.83629236013607    1.93019941916749
O           0.99119250287444    0.94154091800354   -2.27875673620010
H           0.81788994422768    1.84518781558590   -1.95092144750577
H           1.64408297703860    0.58575164446879   -1.63883195178197
O          -0.67114053687533   -1.91487400040303    2.50124672780546
H          -0.72822784732681   -1.82747390762403    3.45469835313074
H           0.24127756308307   -1.61102239184554    2.26371331832697
O           0.77159675722358    3.06373556141702   -0.60362982487341
H           0.57378076926640    2.30952167233929   -0.01499919982543
H           1.67683290310066    3.31367608460351   -0.40831478104921
O          -1.03935403150515   -0.61185780686488   -1.99419712326067
H          -0.34102614988693    0.09207488138991   -2.17688539626295
H          -1.07212551343648   -1.14799761726367   -2.78840693582110
H           0.09304368036948   -1.20617805327878   -0.88148074067259
N          -1.90624815012913   -0.41795943663993    0.70291194122171
H          -2.75235013377444    0.06633420556779    0.98239527280118
H          -1.62768922885164   -1.17523357328953    1.37992541525227
H          -1.96332564932120   -0.75447434975102   -0.26313998570442
H          -1.01442369842759    0.23124002294892    0.72810358960579
