    23
        -45.37471685  Gyration_radius:  2.35236208188 Dipole_moment: 4.928
 S          -1.20497200405993    0.34845234108879   -0.42506071512341
O          -0.36821333870142    1.55001993648472   -0.47334962757980
O          -1.20886055029535   -0.34272779081821   -1.70849219393273
O          -0.41292057178154   -0.65686999750709    0.53571295169927
O          -2.49617574233706    0.57382931136132    0.15764568563924
O           0.88034882049651   -2.95715681652151   -0.15131297250642
H           0.24005517103774   -3.67041039042011   -0.17920876216015
H           0.43149601508743   -2.20492690909793    0.27763742518915
O           2.14554226859493    0.96412881059237   -0.75959291942820
H           2.45230819070235    0.85621328421682    0.14298766344355
H           1.21951019360634    1.31135662749789   -0.68556485004678
O          -0.44362394123298    2.61964041860459    1.93801248271128
H          -0.38537882716065    2.29719645803774    1.01115003352906
H          -1.02531849519563    3.38133091980593    1.91269918833234
O          -1.54557550400670    0.26951925892176    2.61588165288799
H          -2.28678491042548    0.39968102537098    1.99900513440886
H          -0.75679873719529   -0.40226596606470    1.44937507967479
H          -1.10102016918804    1.14301579486072    2.65382933883118
N           1.19815830554389   -1.11245295083099   -2.09022585988165
H           1.74978859064254   -0.33878666096033   -1.62753750507534
H           0.16217368350166   -0.78901308805624   -2.03443821227837
H           1.49320271407060   -1.26569846931102   -3.04803341528851
H           1.26305884829082   -1.97407515723987   -1.51111959304904
