    23
        -45.37707408  Gyration_radius:  2.31810804815 Dipole_moment: 5.134
 S           0.32288681993164    0.61209349961086   -1.01662644657087
O           1.15490477747091    0.36198608529398   -2.29789666331053
O           0.71667319939948   -0.40951095151949   -0.02956683592988
O           0.67707545721241    1.94163380848959   -0.54027513330371
O          -1.09265256228569    0.48402870074469   -1.32875371163983
O           1.61702974871154    0.13055875625671    2.37861097463293
H           2.55360713267545    0.31638843507819    2.29355637996303
H           1.32753033745615   -0.19387423311825    1.49185401993772
O          -1.06329299147926   -2.18820431322624   -0.81354060246800
H          -0.37637954411687   -1.65928361791909   -0.35657321625704
H          -1.63942345655402   -1.52024273771543   -1.20634413071081
O          -2.18423684706886    0.36617253411440    1.03615132208458
H          -1.90066348334145    0.45957014541037    0.09193917950415
H          -2.08972694980244   -0.56774818465161    1.24157454433318
O           0.69865847390144   -2.16028503021110   -2.80895541529485
H           0.97653494484172   -0.57263943884431   -2.58948198103242
H           1.46374299641765   -2.66564523476221   -2.52634937849333
H          -0.01725482718628   -2.35187370974303   -2.15595029260918
N          -0.23786510658855    1.95335084405244    1.86219899549300
H          -1.11005761560335    1.37492260289676    1.71362513419958
H          -0.42580918843496    2.81908515013240    2.35505052560994
H           0.48155364910117    1.35508646698955    2.33521360352601
H           0.14716503534609    2.11443041264249    0.87053913833736
