    23
        -45.37036586  Gyration_radius:  2.38251232983 Dipole_moment: 6.214
 S          -0.41483185101745    0.35124155794673   -0.89071502153447
O          -1.14413418054739   -0.74325949303491   -1.66995022767464
O           1.01862771392468    0.01566779798348   -0.82006362589654
O          -0.60030600828285    1.60941312332730   -1.60766491649153
O          -0.97558414753166    0.42790451242991    0.46151421889954
O           0.13432519199303    2.41778895414667    1.75377354089931
H          -0.29049243362511    1.60805802317720    1.37246909536065
H          -0.58916906391016    2.98739160407655    2.02112957691116
O          -1.96939273763565   -1.68701953470820    1.72354610245394
H          -2.91937581029186   -1.56051560128866    1.69774645982467
H          -1.57616572477450   -0.86706867609781    1.35552875576564
O           1.71181160993406   -2.45901297048048   -0.18455760834889
H           2.23279679933160   -2.76103681909111   -0.93048026375581
H           1.51508790233050   -1.51194611713082   -0.35577153577135
O          -0.91447243725846   -2.90948342064714   -0.40867140652003
H           0.05433840985646   -2.93720023599619   -0.24568245478540
H          -1.32015346500491   -2.66534834704142    0.45236130235454
H          -1.07085479107959   -1.66460183167674   -1.18887587478687
N           1.47326935078800    2.52254758326980   -0.50733718309309
H           1.12321992965313    2.70876808983860    0.46806947491606
H           2.18254503106209    3.16985378510697   -0.83274134036585
H           1.75061886035630    1.51117210202714   -0.54259882850042
H           0.58829187173044    2.43668594386298   -1.12102823986015
