    23
        -45.36528531  Gyration_radius:  2.38226847844 Dipole_moment: 3.483
 S          -0.23755665517941    0.35185611524482    1.04297054204868
O           0.39696458150807   -0.93946089267196    0.68898648066889
O          -0.15749319991333    0.46048155494430    2.58955155253835
O           0.52236273034796    1.46097306051572    0.49414217310333
O          -1.63004122857898    0.35848559609996    0.63598677225817
O           2.81374988064056    1.24749274658128   -0.70725818123883
H           3.49980159732616    1.22602832096983   -0.03761383484248
H           1.97219346939506    1.47134424887295   -0.23404576934857
O          -1.26813138654038    1.65844860295397   -1.63288793009326
H          -1.58572288081426    1.19001277506547   -0.83128794842561
H          -0.58791997790129    2.25003372858972   -1.29573522899286
O          -0.12523763662616   -0.25709332463106   -2.98480253259746
H          -0.56116081471579    0.52969282849483   -2.54790875473479
H          -0.81605263125431   -0.91201401635004   -3.09952936573643
O           1.71481728664273   -0.95106555378896   -1.37923194624233
H           1.01614173921752   -0.70458170729797   -2.09724246791912
H           2.28299900276886   -0.11513884124796   -1.23416173814223
H           1.14187364666618   -1.01433253857447   -0.45186645078511
N          -1.76598591760628   -1.58431466603132    2.68886425716662
H          -1.21344695995471   -2.36400984337768    2.35587640958293
H          -2.16881894655065   -1.12491696449169    1.87611873277375
H          -2.51124606232742   -1.93889149458668    3.27450800928525
H          -0.73208965071680   -0.29902972383489    2.88656722891092
