    23
        -45.37276231  Gyration_radius:  2.3769901903 Dipole_moment: 7.390
 S          -0.82000563401876    0.36548452356323    0.22312701539008
O          -0.68777510531416    0.36880642382848   -1.23436618626641
O          -2.07121413276145   -0.28551449828801    0.63250554977828
O           0.27893567123111   -0.61333474264894    0.76514725684757
O          -0.62195927579936    1.66778739510731    0.80479356078039
O           1.42198600379372    2.31304827123099    2.37995151285631
H           0.61640896872953    2.18154530116576    1.83722727631082
H           1.16223202296280    2.14143978994073    3.28584694828231
O           1.30089355089901    2.14624847837618   -1.30612803398181
H           0.56230576823415    1.52405454517584   -1.44864966639469
H           0.93641194684236    2.83898274199815   -0.74821418978268
O          -0.98542008877433   -1.89824828200786   -2.44943162927690
H          -0.78621232178794   -0.99816065096333   -2.07563621287478
H          -1.65870279073121   -1.75535820602561   -3.11704254687837
O           2.46312214655818    0.62711349085963    0.55007568560579
H           2.26120152942119    1.17702199218962   -0.24244748789892
H           2.36794494829002    1.24176004029787    1.30466438572336
H           1.20337705972720   -0.15957304560904    0.67723307058600
N          -1.39834228876614   -2.62880685134818    0.03828356367705
H          -0.47506205769665   -2.66212045793170    0.46937833775390
H          -1.28169905075839   -2.54499294866099   -1.01157836307530
H          -1.97711842341053   -3.41476384397680    0.31457510786156
H          -1.81130843687462   -1.63241948627749    0.35068504497491
