    23
        -45.37247599  Gyration_radius:  2.38946246235 Dipole_moment: 4.423
 S          -0.62666436679785    0.62385926932063   -0.31741156360383
O          -0.67067716195249   -0.11571998743061   -1.58866864844886
O          -1.27034061296035    1.90560859515738   -0.37763974448059
O          -1.41816311186119   -0.32193836003700    0.67059326044322
O           0.73635428371245    0.68371925562322    0.20451080176908
O          -1.51493608110339    3.17185841734607    1.93589371627457
H          -1.08037696419448    4.02052057804380    1.83649808843184
H          -1.53885352904323    2.77443722342027    1.03844220414859
O           2.04323523317306   -1.54818527688522   -0.19287341197557
H           2.27635224337128   -1.36084952157802   -1.12471835386055
H           1.68522034861069   -0.67966520968079    0.11621570955362
O           1.75645532233347   -0.57533274555560   -2.68096934522080
H           2.18236129624139    0.25009846087868   -2.91679347159632
H           0.84784033013727   -0.33939074313159   -2.40695508036652
O          -0.36148841965848    0.86686575269929    2.67337505578663
H          -1.17319179407432    0.05182996334849    1.56761072718861
H           0.38615991971832    0.95215464206670    2.06187935573330
H          -0.81170598380228    1.73790827992739    2.65980996873272
N          -0.30767118070243   -2.46811680608051   -0.63161055534203
H          -0.41210755595001   -3.28931783418995   -1.21884811881595
H          -0.59156668510615   -1.56154512817296   -1.14110332474053
H          -0.87962981789524   -2.52474189352439    0.20844187334758
H           0.74339427780120   -2.25405692157149   -0.37567911295800
