    23
        -45.37824531  Gyration_radius:  2.39117151047 Dipole_moment: 5.930
 S          -0.01009628874859    0.46062194337267   -0.83501725770365
O          -0.54846479119725   -0.77781587132198   -1.38570353962397
O          -1.04537776535124    1.33985123558783   -0.33279554760592
O           0.96107868733140    0.15460573793685    0.23981090070402
O           0.76491387598166    1.19987435173048   -1.95076349394763
O           3.04059158734838   -1.18152080890650   -0.72893911582255
H           3.79033152244138   -0.58864927638161   -0.65240357347386
H           2.28901276002409   -0.72601217475866   -0.29226398019204
O          -1.31461905700707    2.29465030183511    2.09754226274264
H          -2.12796623957980    2.80086892995218    2.12621175843882
H          -1.15081085088085    2.09777790186366    1.14450825579015
O          -2.40606536607174   -1.13561458289465    0.40845604165342
H          -2.97511016830535   -0.39212372351568    0.19288519420112
H          -1.74679227790095   -1.15285015114154   -0.32882036347382
O           1.60184034638596   -0.98413504233786   -2.99790913098996
H           2.26561835639779   -1.23247978780007   -2.32087955583130
H           0.75871928658058   -1.33136570723320   -2.66762139203497
H           1.17802022591374    0.46340665287656   -2.49747466968164
N          -0.66528259814786   -0.28070766408496    2.19955865548197
H           0.12962839434499   -0.14564288931979    1.49444203664936
H          -0.38400966176116   -0.83897988973159    2.99791136331595
H          -0.96475841397704    0.68566861332984    2.46080126689895
H          -1.44040156381411   -0.72942812904541    1.62846388450782
