    23
        -45.37824523  Gyration_radius:  2.39122286601 Dipole_moment: 5.929
 S           0.66183587199596   -0.67592669697444   -0.11793080166158
O          -0.44145056608997   -1.52992520863799   -0.54240511709119
O           0.42049184972933    0.71667996616445   -0.55878325891535
O           0.87256636655566   -0.71370153499995    1.31422505198655
O           1.95447317247474   -1.15666550761518   -0.81818095169262
O          -2.02965972164333   -1.00377872133630    1.45724884358473
H          -1.55917300351202   -1.28827971360091    0.63493805536385
H          -1.53098814648073   -1.41982684959701    2.16520534322500
O           0.36423493631807    0.86645846065539   -3.20865542127983
H           0.33296553109081    0.88389026160100   -2.22794175765374
H           1.14299709947830    1.36742734836306   -3.45784138097223
O           0.82374011359903    1.29249740158253    3.00643165297223
H           1.01892278573165    0.55121587917062    2.38493122074291
H           0.94828345270020    0.93733217418307    3.88791539289380
O           0.70994365690261   -1.79418378568908   -2.96582564931953
H          -0.01696391708727   -1.98255382444617   -2.35216207688681
H           0.53022250108905   -0.89423918233979   -3.30999295615082
H           1.64661213319444   -1.46775735668388   -1.72384380412673
N          -1.20020802923442    1.49724837355824    1.29580756360078
H          -0.55635815120328    1.32380178782029    0.45753214507944
H          -1.70107838213467    0.57021001936111    1.42972848628740
H          -0.55780647128850    1.64584373704571    2.10631069048136
H          -1.83360308229183    2.27423296225543    1.14328872967729
