    23
        -45.37467535  Gyration_radius:  2.35096242699 Dipole_moment: 4.960
 S          -0.24752329289459    0.52071504042925    0.91856964348581
O          -0.53358872131846   -0.35129030931695   -0.23933109721512
O          -0.23517231988301    1.92115131121166    0.51529663502052
O          -1.41808999976183    0.37935069383231    1.91925561907460
O           0.98990615825806    0.10555772981953    1.55465220437891
O           0.68022069455687   -2.47428959061375    1.17050412514628
H           0.98992439567079   -1.56287906865497    1.36859704607231
H           0.20860591257787   -2.38810740351582    0.33618500712344
O           1.93939080227810    0.03206676985167   -1.11535075253444
H           1.04881991598251   -0.29486125700574   -0.86888822198856
H           2.38523708335915    0.13086900912185   -0.26804274436784
O          -1.50185681388630    0.50938875771256   -2.53096231845478
H          -1.53961458457629   -0.25657156031074   -3.10624369268111
H          -1.30263850099515    0.16215975928913   -1.62900491826192
O          -1.22049364963474   -2.00650506614746    2.93773845339059
H          -1.41494131917345   -0.54019198872725    2.30881854033916
H          -0.53683063623942   -2.37458170513813    2.32300409518365
H          -0.79100764960628   -1.91388680906197    3.79085747983570
N           0.51613144244099    2.11618563423458   -1.91569148190434
H          -0.26949303675560    1.64431748431673   -2.42193347682739
H           1.30956702388415    1.43711174772961   -1.83924810264842
H           0.77554289247692    3.00936946503443   -2.31775136235173
H           0.16790422333870    2.19492135602781   -0.89103067971877
