    23
        -45.37886544  Gyration_radius:  2.30976447558 Dipole_moment: 5.412
 S          -0.41771151411779   -1.01082982123830   -0.57258618752364
O          -0.68681012014009   -2.48529754411375   -0.18323814829894
O          -1.49989380633506   -0.56918618167761   -1.43910809736539
O          -0.42313096214201   -0.22004833682441    0.67088151736762
O           0.88713718961755   -0.93194400731752   -1.21435386459208
O          -2.07419745378556    1.78983612883905    1.07388077271120
H          -2.94416095118416    1.41219760926921    1.21471655822712
H          -1.45135912531043    1.02461820414633    1.05988115900849
O           1.66836402691354   -0.81030566756949    2.14837570163991
H           1.35094317995287   -0.95192470052009    3.04178877056694
H           0.88646239437952   -0.52890298533967    1.62127034753320
O           1.42756885708292    1.59311434857808   -0.86233187558617
H           1.61566071344206    1.62106528580002    0.07943351079870
H           1.36241480225681    0.63089782489100   -1.07981041314642
O           1.79061422362955   -2.88090289444615    0.40779835084372
H           1.94968896656114   -2.34086520529206   -0.38032363089242
H           1.92954051895144   -2.26527514456788    1.15656326467232
H           0.21003235869427   -2.82550121621315    0.10572769254544
N          -1.12790554115164    1.98730254190678   -1.39569899900975
H          -1.35574346279700    0.95663961174284   -1.57894484698086
H          -1.60060161060613    2.20217898993506   -0.48490707679880
H          -0.07800857010459    2.00790270814823   -1.23578881670446
H          -1.41890411380260    2.59523046187196   -2.15322568901265
