    23
        -45.36528539  Gyration_radius:  2.38233356355 Dipole_moment: 3.485
 S          -0.60829783046033    0.94792632537822    0.01950354783401
O           0.21629309148281    0.42481408261479    1.13398298785283
O           0.24058905285234    1.42043633093523   -1.05803067205141
O          -1.57484040233457   -0.04679067457858   -0.41067648212215
O          -1.40771473066340    2.14464641699000    0.60170852377958
O           1.56284768389902   -2.32524412568535   -1.07207942816518
H           0.98905375156277   -1.79689747637840   -1.69794621422418
H           2.44498526733137   -1.95731294875617   -1.14765703885804
O          -1.99949015998025   -2.31886719599040    0.77089014831167
H          -2.60946711882771   -2.16801154864157    1.49521760005529
H          -1.96740802845635   -1.47294575204991    0.25533366293309
O           0.07942446818980   -0.75918475658254   -2.53821705527550
H          -0.84632774909166   -0.93718843087853   -2.34449114787329
H           0.23565777286031    0.12102262502074   -2.13345938508595
O           0.49180087452294   -2.01099216671032    1.20812670883214
H           0.95875605359782   -2.21642729278170    0.31142609627624
H           0.41156005213803   -0.92227608586131    1.23071068630090
H          -0.48007404579363   -2.30426588021618    1.09805786115501
N           0.87553689514229    3.35719959974005    0.90475936452500
H          -0.68448231893473    2.79310672796865    0.82969231962414
H           1.08022078946161    2.88808352834605    0.02622446062938
H           1.24996331303312    4.29695795783695    0.87606819641596
H           1.34141331852273    2.84221076007510    1.64085522897681
