    23
        -45.37383455  Gyration_radius:  2.27527439541 Dipole_moment: 5.652
 S           1.03815408208417    0.88367982648807    0.55526008021577
O          -0.21275308333815    0.32839832343190    1.07862877771303
O           0.94446963773979    2.34496484604962    0.50629487811472
O           2.21035176990909    0.37372781621509    1.21247309930122
O           1.08790181481741    0.46113003330717   -0.96608997864295
O          -1.48075504176186    0.67660867385031   -1.87897561099514
H          -1.74546888708174   -0.17300570142285   -1.48943736652253
H          -0.50742171920886    0.64822600570554   -1.88175142824629
O          -1.54357864639265   -1.49570083567672   -0.17146625575329
H          -1.98387948618999   -2.07042488731364    0.45592509849567
H          -1.03547791521326   -0.83432893199589    0.37142637243978
O           2.02913333777558   -2.22874576461675    1.49294103632867
H           2.07558960356407   -1.24444034671261    1.51508992250663
H           2.92815392420906   -2.53202484023525    1.63261176549400
O           1.02476457453442   -2.08592010925529   -0.96461938505096
H           0.06318892698798   -2.14888601740166   -0.83252850690347
H           1.16893125133064   -0.55225264052604   -1.01440277698610
H           1.42621180099979   -2.30127160463334   -0.09118374182087
N          -1.53763293025929    2.42032468141207    0.09159420356696
H          -1.99727484690195    3.31764636454353   -0.02315908337604
H          -1.87325946869593    1.91514881162431    0.90945143278064
H          -1.64316486816154    1.78665211335920   -0.76219935056654
H          -0.43618383074323    2.51049417381134    0.25411680790753
