    23
        -45.37383454  Gyration_radius:  2.27511117746 Dipole_moment: 5.651
 S           0.09440250069664    1.28677044938300   -0.70902398555331
O          -0.92236797012282    1.74403441347712   -1.65962261844159
O           1.20962451164381    2.17763903018934   -0.53987757094865
O          -0.68897205759792    1.19245934445301    0.65956112606848
O           0.48848880196339   -0.08663914941034   -1.03391247702730
O          -2.17022102345495   -1.10083904302820    0.50763718870271
H          -1.41126826833741   -1.66749217744858    0.72338648786532
H          -1.88923426653585   -0.20804991432282    0.77645992165906
O           3.06216933794805    1.03566908701002    0.92590706695676
H           3.60398483643520    1.75497055160060    1.25567691689967
H           2.44593881126246    1.44558850943896    0.27497253602165
O           0.43956241495197   -1.98753525975621    0.71139556414697
H           1.13939028609637   -2.61685865233813    0.53254428335656
H           0.52755434183318   -1.27557208398731    0.02172478273502
O           0.96245331503325    0.18520939554518    2.31756292184751
H          -0.03763459048239    0.89066560608052    1.38118768152770
H           0.83607886309663   -0.73212090323741    2.01996287277115
H           1.82849537755234    0.46774277072606    1.94263189608949
N          -1.93602636183048   -0.52715036044766   -2.05017025159207
H          -2.15272417559837   -0.85150742804920   -1.05541698613121
H          -2.72874267907753   -0.61869615752647   -2.67698930098056
H          -1.58230931909339    0.52697931524950   -1.94301082176467
H          -1.11864268637828   -1.03526733360826   -2.38258724420324
