    23
        -45.37746415  Gyration_radius:  2.373499569 Dipole_moment: 6.043
 S           0.26565699949379   -0.04687807632284   -1.19733206787740
O           0.69198410906037   -0.84240277644857   -0.03719776720162
O           1.40661648147531   -0.08091942502332   -2.24029418350229
O          -0.91560293349835   -0.63705928336580   -1.80866321668002
O           0.04712647714844    1.34128241112280   -0.79810736128231
O          -1.97519320000679    1.64928319019955    0.81414755872558
H          -1.23575031516691    1.63535416895048    0.15327097109998
H          -1.57272881641062    1.91106051889374    1.64413751198073
O           2.91717072653872    0.13403694590739    0.98215159095402
H           3.57291581503393   -0.55640535226335    0.86936032632074
H           2.06492319493040   -0.24936803646867    0.67379938909884
O          -0.89955304796123   -2.26440782860705    1.48140603655596
H          -0.23438445814281   -1.84517852425028    0.88254210654832
H          -0.56512581270728   -2.14015114826624    2.37125728526433
O           2.66691693789740    1.83989572581625   -1.08924551001639
H           2.95818309934982    1.37928510267633   -0.27453315339409
H           2.03027151077395    0.64390670915272   -1.94070928894928
H           1.76551303570102    2.14156276904479   -0.89744550480949
N          -2.63854578897640   -0.81332828784725    0.09284823762180
H          -2.01623491246806   -0.79508875217618   -0.78750836645410
H          -3.59057301722527   -1.08532119551615   -0.12531365668025
H          -2.16780566992688   -1.48052165453724    0.74913039608808
H          -2.57578041488817    0.16136278934326    0.48229866658395
