    23
        -45.37283361  Gyration_radius:  2.32765760518 Dipole_moment: 5.574
 S          -0.21506517277262    0.49723851807710   -1.01395848691369
O           0.09584834589616    0.17213573704956   -2.38459734353997
O           0.88220669391420   -0.25197533138094   -0.17092416306955
O          -0.18352361002582    1.89716702264955   -0.67666556837841
O          -1.49240208114797   -0.13142887623125   -0.58370920694695
O          -1.87202010658071    1.34800311051401    1.60371520585099
H          -1.90263930453493    0.81402800994977    0.78729471309426
H          -1.68766389501135    2.24297471433425    1.30501757931755
O           1.40703376090394    2.88972486086669    1.20924021738514
H           2.21552278715851    3.19242790059016    0.79443177198260
H           0.80742335006001    2.63119708515020    0.47738302612473
O           1.09136199743328   -2.19156192564233   -2.21512512530706
H           1.93465721705553   -2.00530119422251   -1.79443019195554
H           0.72614232668875   -1.29130494979590   -2.44385162292036
O           0.58801445741275    0.53296595558491    2.21917235681339
H           1.04829774778349    1.39088044693739    2.14063424845002
H          -0.36831579514614    0.77373396817419    2.20961184651756
H           0.80186093007651    0.03693881337294    0.80897442191465
N          -0.78502357876719   -2.54909461819295   -0.43882440876316
H          -1.49474916265516   -3.23236925722979   -0.68372967746681
H           0.01950914403877   -2.53646117315415   -1.15750928132709
H          -1.19067708956972   -1.51588171548754   -0.48922394235740
H          -0.42579894222373   -2.71403709192053    0.49707365151598
