    23
        -45.37464883  Gyration_radius:  2.23502366159 Dipole_moment: 8.245
 S           0.87788987792830    0.90886470759091    0.73535227594423
O           1.69454010955856    1.85271379433541   -0.02429728079066
O           0.99958718755000   -0.43558510011942    0.15048992310299
O           1.43075797762625    0.86780423517251    2.17381767968102
O          -0.52289537776638    1.31443260872162    0.76863045341113
O          -1.41249860415359    0.89591889241213   -1.66819679076293
H          -1.23887640435902    1.20893887919711   -0.74823112458621
H          -1.61865639702318   -0.04686769244644   -1.55984984646248
O          -1.11348229468456   -1.66767765870130   -0.77358031745314
H          -0.29876313191106   -1.23348020370750   -0.41572654345176
H          -0.89401085495343   -2.58899290778791   -0.91766102736135
O          -1.86032706197199   -0.75754309380337    1.81525001245690
H          -1.98053452761251   -1.22589805763306    0.97811175052889
H          -1.52485303137061    0.12291955089943    1.55975020007066
O           0.55500126220650   -1.49605640640421    2.64182839372026
H          -0.41507109685961   -1.33566088830956    2.54480899114527
H           0.87292861539457   -1.67359875405087    1.74723301713737
H           1.13673318878416   -0.01486577008254    2.55438028725315
N           1.07738964469678    1.05851327919020   -2.35602603546756
H           1.47471877389854    0.12909557982558   -2.45834488852410
H           1.32297646084212    1.65613254989099   -3.13893895930984
H          -0.00061641051895    0.99135967403459   -2.20661176730704
H           1.43806210470190    1.46953279177681   -1.40218841297721
