    23
        -45.37144304  Gyration_radius:  2.34991521471 Dipole_moment: 5.122
 S          -0.07403603355461    0.93091167789286    0.02025682364107
O           0.37092048071572    1.20263405572270   -1.32544906022816
O          -1.30776158796249    1.84178511350905    0.26572495489783
O          -0.57904325837016   -0.47462034992661    0.10334362338235
O           0.91239595165449    1.16435361027998    1.05318284707206
O           1.76313210120466   -0.63137359957237   -2.63593166718810
H           2.11204972532115   -1.01954100741337   -1.80511414598448
H           1.52689684216629    0.27913499925597   -2.37094310212789
O           2.01766159706164   -1.21540195529394   -0.03000919330473
H           1.06369956895536   -1.11039069197471    0.12465471523419
H           2.41574690978003   -0.48254473077822    0.44959585123977
O          -0.13851711992902   -0.37855902024849    2.90771802657074
H           0.42151366927548    0.19304509838148    2.33816529423028
H          -0.48085778010217   -1.05085502794877    2.31125292735414
O          -1.91940628667782    1.56314697176792    2.77892196146529
H          -1.34282445871528    0.78543108232083    2.98938191544115
H          -1.54258817489723    2.30856168933235    3.25153023144473
H          -1.60537347022581    1.74674652403703    1.21466100508418
N          -0.75158726138116   -1.15732304125961   -2.35367290210334
H          -1.11872640644694   -2.08503683677225   -2.53997220082327
H           0.30880313377586   -1.05642767840317   -2.60367547338806
H          -1.27248618772821   -0.44240590984106   -2.85305263932635
H          -0.77961195390601   -0.91127101305288   -1.29056977256623
