    23
        -45.37719437  Gyration_radius:  2.33864910106 Dipole_moment: 4.161
 S          -0.42505912130629   -0.99865536520123   -0.37546641974125
O          -1.62965937548740   -0.18732216196655   -0.19326249858139
O          -0.74168547759728   -2.44764456422720    0.06655110690656
O          -0.01805348517931   -1.07330057715380   -1.77184234260150
O           0.66373864356833   -0.48626021172400    0.46143061592456
O           2.92306977441003    0.50988605162715   -0.40925618828153
H           2.12623956505013    0.12812860792086    0.03453616740851
H           3.53550459811138   -0.22027625282746   -0.51260161570689
O          -0.73989971313595    2.23935557548487   -0.62841335036593
H          -0.47756333728814    2.49812937936210    0.25856457272313
H          -1.20127939485415    1.37189301951041   -0.52490840046413
O          -1.04607951032941    0.38481349532650    2.32143443600878
H          -1.55354482918498    0.35948457360775    1.48873773297012
H          -0.14203092347815    0.21055555466320    2.01464232346838
O          -1.64054303198069   -2.19296015123595    2.50335643489557
H          -2.59765750475052   -2.25950066231665    2.48099526894321
H          -1.04843640293155   -2.42308499156527    1.01396817126394
H          -1.42941190442716   -1.23923484787989    2.65733267922059
N           1.10627991897981    1.19129841672386   -2.21243919210427
H           1.26209426966049    1.52662559931361   -3.15627655493773
H           1.99092237825919    1.08588324383384   -1.65834364673802
H           0.43962960930564    1.80335027791929   -1.67171603985614
H           0.64342527451157    0.21883599079188   -2.18702326036418
