    23
        -45.37884005  Gyration_radius:  2.38601331302 Dipole_moment: 5.856
 S          -0.45236557966027    0.57899015554476    0.62688051582163
O           0.42359742833772    1.69211620021354    0.32815231406863
O          -0.99361942875676    0.75309660012940    2.06593567251914
O          -1.58169513515460    0.48926080165597   -0.28938783637447
O           0.31755891833113   -0.68758221929571    0.60943184620815
O          -1.20067795998355   -2.69168147029398    1.46263956399173
H          -0.59573606143648   -2.00773787715055    1.10297708152695
H          -0.81985412479285   -2.97198344629328    2.29679076903723
O          -0.29338974562211    1.18418311558078   -2.45290694475186
H          -0.92059032923902    0.91675212923632   -1.73815190184369
H          -0.02059391613021    2.07314961691027   -2.20890283975350
O           2.95571071135888    1.58256196766902   -0.37158027335208
H           2.03613609911997    1.77213528748197   -0.06764455756354
H           3.48390174396822    1.51767952798408    0.42561546089829
O          -3.03793435116835   -0.72546582597510    1.61883072745607
H          -1.84677877901674    0.22020188900794    2.07615633518674
H          -2.95286281433544   -0.37517469122305    0.71833694443070
H          -2.59154785472299   -1.59746306227682    1.59808204577722
N           1.64317395461110   -0.37449032192919   -1.58881678382918
H           0.91999774024214    0.19942690652955   -2.11982954619272
H           2.39511489631097    0.28338375651731   -1.27396775751866
H           1.13843682105486   -0.67060851280695   -0.69442871248094
H           1.99401779668394   -1.16075053721374   -2.12421211326325
