    23
        -45.37144325  Gyration_radius:  2.35002113713 Dipole_moment: 5.122
 S          -0.77267015954421    0.47451868871671    0.22299205093976
O          -1.45481324312407    0.70666064787408    1.59878782948218
O           0.43005381276625   -0.37089332718727    0.49933789617362
O          -1.71275362038715   -0.27413028752127   -0.57604222601247
O          -0.36612766210885    1.74613883264537   -0.33576081389166
O          -0.82715640317921   -1.76043072208813   -2.58339458488515
H          -1.45774879352056   -1.16297722415271   -2.13579726442459
H          -0.03588767416148   -1.19356549565635   -2.70722660193337
O           1.08787133724293    0.05161182800422   -2.08825906781324
H           1.04374902262589   -0.10892808309404   -1.13046879074855
H           0.75013023128545    0.94638936096985   -2.19251050721997
O           1.89085442766292    2.01709715150314    0.98961608106363
H           2.11964727764477    1.08325542505031    1.01365494293105
H           1.12523380838234    2.06693956107507    0.37627962212361
O           0.11721900431983    2.30272964355260    2.92136357465311
H          -0.87258007772542    1.29140808665604    2.16204542548177
H           0.90815706269574    2.26328555530253    2.32605897134376
H          -0.23566551475002    3.19103930495826    2.83520869331852
N          -0.34004947072019   -2.69799353894546   -0.22450269126034
H           0.03040479480068   -1.75295502068353    0.17696533330588
H          -1.23312931384854   -2.89555723163862    0.21734335092349
H          -0.51521510512794   -2.46753913518324   -1.27958017619571
H           0.32047625878377   -3.45610404015792   -0.08611105734397
