    23
        -45.36975751  Gyration_radius:  2.34170875005 Dipole_moment: 4.549
 S          -0.72624813316515    0.83403879384592   -0.48090881200215
O          -0.57725313447605    0.61285771464287    0.95669184131638
O          -2.13077955318519    0.37093291412889   -0.91429878612048
O          -0.61684795453184    2.24619016802026   -0.82512010013303
O           0.27477919034303    0.04533487813872   -1.21699237237927
O           1.73644877803219    1.67573529260235    1.62965335855116
H           1.56149943932111    2.31869117365281    2.31895172838325
H           0.87632783477134    1.21613915263348    1.46830597022517
O           0.16768687122707   -2.55634892252778   -0.56524504179159
H           0.29686765628443   -2.48342440622830    0.40179462940907
H           0.34222165626627   -1.65802854128519   -0.90680607206492
O          -0.14927640038340   -1.81625816143999    2.01049785491611
H          -1.02015471396850   -2.14016902353233    2.24957141392680
H          -0.28617959280587   -0.89917258072619    1.69912346097208
O          -2.39156574369733   -2.15666162226868   -0.51985575966366
H          -2.80558910201543   -2.52618616424988   -1.30194078911340
H          -1.42691647694088   -2.43913412049640   -0.55056338098319
H          -2.26135152172436   -0.60860100087179   -0.70949538034251
N           1.88979494238315    2.02207270211364   -0.97170770157276
H           2.12214441015536    1.99398095937433    0.05392475713084
H           0.89981428311359    2.44248262517824   -1.01896517535660
H           2.59367204037251    2.46163348386761   -1.55428313561904
H           1.63090523462245    1.04389467542667   -1.25233249768785
