    23
        -45.36975753  Gyration_radius:  2.34170692385 Dipole_moment: 4.551
 S          -0.58082640106749   -0.32110297450097   -1.00693713712174
O          -0.57560520868709   -1.47552082630722   -1.89681878076873
O          -1.02528478379736   -0.67628885835295    0.33996837505313
O           0.75620984984751    0.29122676262241   -0.94965851557759
O          -1.56475198997497    0.70435635724481   -1.60305351284135
O          -0.68347631498181    0.94296572020687    2.45076669865649
H          -0.82751369407096    0.29345426286505    1.73370515480233
H          -1.50445008191586    1.43419183724475    2.52250085267091
O           0.82324597049067    2.38041730818606    0.73431137325314
H           0.97202893416915    1.65366556310662    0.09886440433294
H           0.51265122215506    1.93744710688242    1.54946242410675
O           0.56179281577974   -2.61455320718851    1.15233288435590
H           0.00289672576443   -3.35897891560843    1.38148322553381
H          -0.05523942820341   -1.86833057693060    0.95356675687266
O          -1.53674248120655    2.86936348196340   -0.21592591324406
H          -1.50730290074917    3.60283071357290   -0.83293776295264
H          -1.60232155508113    1.53515795613756   -1.03138604928858
H          -0.61918064558657    2.80521271277645    0.19053836142493
N           1.75118323511682   -2.06562330337264   -1.12683932525396
H           1.52399545161130   -2.47477815370337   -0.18466975460264
H           0.82103955109119   -2.08689072840808   -1.66849892421489
H           1.80678643402293   -1.02457410316021   -1.00153071205509
H           2.55086528527505   -2.48364811527616   -1.58924412314105
