    23
        -45.37580223  Gyration_radius:  2.33627254653 Dipole_moment: 5.556
 S          -1.01471224970255    0.54236896418516    0.18746176806604
O          -0.58852355568155    1.78146259910727    0.82429829556949
O          -2.35727508916491    0.13323851202170    0.49646211474738
O          -0.91950837656898    0.83704567491017   -1.35449514501034
O          -0.02376198553239   -0.52657973486565    0.43341752176247
O           1.79169355677955   -0.42669110124812    2.36064642031969
H           1.02167830082070   -0.54233102830202    1.75894073786815
H           2.31145503948775   -1.22868587430518    2.28390319589429
O          -1.98513883007425   -2.41372988599560   -0.02815534483200
H          -2.34598382426459   -1.57849038292347    0.33484867751691
H          -1.04641059528880   -2.35430395278193    0.18042002938267
O           1.84429071714564    0.29616637536569   -1.24287256190804
H           1.32673229681437    0.65114769385334   -1.97099043576853
H           1.18547489535343   -0.17583131552320   -0.68472682658882
O          -2.17990734996007   -1.18851896730847   -2.35573263781972
H          -2.11395890713806   -1.81178404006176   -1.58641792571866
H          -3.10737052889771   -0.94839106774367   -2.41433166114350
H          -1.39810982903290    0.08631030221020   -1.80809796360445
N           1.95895279249894    1.80755573828552    0.92426253372127
H           2.44756160438577    2.67725897392617    1.10187722533549
H           2.14402325924670    1.07706411900324    1.64728574931216
H           0.87602382811145    1.92321710058524    0.92381196165505
H           2.17277482065151    1.38250128762719   -0.01181573875035
