    23
        -45.36780543  Gyration_radius:  2.39310075595 Dipole_moment: 5.928
 S           0.66683281966442    0.83844074740433   -0.58217602647936
O           1.83967846174716    0.77256645197017   -1.44282815908680
O          -0.38618054843247   -0.07285013376028   -1.07405387356762
O           1.16245773687327    0.18243201691107    0.77368079640327
O           0.17160753563978    2.15436492185528   -0.29723732824782
O           1.98582881743946   -2.40335738609236    0.74044649999124
H           1.37981999581985   -2.85664170593802    1.33003190187546
H           1.85715379329102   -1.44835219279413    0.90245247541723
O          -2.94446866231941    0.72992990366512   -0.91936826908512
H          -3.03030303094159    1.34900932910778   -1.64655297150632
H          -2.03824310106033    0.36680471243647   -0.98284587089557
O          -2.02999760046817    2.11004472950069    1.22853034445916
H          -1.25021822804670    2.35537766936959    0.69261485390462
H          -2.60698423432931    1.63196537863694    0.60134890996227
O          -0.66935098558437    0.35807900440263    2.54413301131086
H           0.42584926595865    0.25450535379435    1.46641952854967
H          -0.32930657278056    0.82548976617535    3.31003383960560
H          -1.30855900961831    0.99923638703771    2.10085891391638
N           1.43813507816240   -1.68790320802867   -1.78094063498563
H           1.74872489819143   -2.21476052975260   -0.93637150237811
H           1.55584674043220   -2.20351502708827   -2.64581529253857
H           0.45538185355039   -1.32756168405679   -1.60996048894276
H           1.90629497681605   -0.71330451475114   -1.77240066768334
