    23
        -45.37704141  Gyration_radius:  2.43399307899 Dipole_moment: 5.272
 S          -0.19989083472323    0.84276676777359   -0.07743262635627
O          -0.06639663286745    0.55893306847552   -1.50178185571990
O           1.28324072435330    0.91616446783900    0.44995098925653
O          -0.86036473803841    2.08181850065617    0.22160100274005
O          -0.79808197634495   -0.30812669447202    0.62638371034790
O          -0.94191672339411    2.92210761623925    2.72746330124538
H          -1.04991638948049    2.66905546481383    1.78415483922852
H          -0.57737986884836    3.80863799570001    2.72031403306780
O           2.04331656967208   -1.02421187643254   -1.44473228185739
H           2.59877522894567   -0.64570116148463   -0.75817467606023
H           1.36832983995470   -0.32941635562799   -1.61726118062538
O          -1.36694520959257   -1.29829191075602   -2.87000547502097
H          -1.03720578373203   -1.26345342192594   -3.76988922200569
H          -1.03443366789162   -0.48376423271758   -2.43144630254095
O           0.44076776014930    0.63763461555039    2.85598862582905
H          -0.01058170437976    1.48751314348874    3.05124730912800
H          -0.23617712276400    0.09016382196757    2.43206172867400
H           1.15277148325128    0.87865460610389    1.44008685164294
N          -0.13984408522741   -2.35716099156069   -0.75994579339935
H          -0.70179845993907   -2.22877279751972   -1.63431030656172
H           0.85261317869893   -2.09933118152982   -0.99141506435024
H          -0.48122208785242   -1.57251757116633   -0.09434359145171
H          -0.23765948996440   -3.28270185338116   -0.35851398522567
