    23
        -45.36780541  Gyration_radius:  2.39309719114 Dipole_moment: 5.928
 S          -0.42255604855754   -1.08569601514039    0.35870901387434
O          -1.02365606156911   -0.05017779836157   -0.50592934910296
O          -0.89003141781290   -1.01573299742201    1.71321074703456
O          -0.50881745184129   -2.39284983577169   -0.27735772483780
O           1.13059461223420   -0.76655728429220    0.34483321727273
O          -0.74279690757708    1.46324385944527    2.71810222466193
H          -1.36550859094874    1.88758843346751    2.09603303131478
H          -0.86996562184507    0.50636757374242    2.56423822437176
O          -2.43930807464992    1.91697226368176    0.65141461730547
H          -3.27467528445233    1.49733779287771    0.86487517404718
H          -1.91786824999277    1.24456403249508    0.16873069211652
O           2.39492817225334   -0.57720581675781   -2.04910809219237
H           2.13423067201503   -0.74099574365261   -1.12166828409674
H           2.72250339550136    0.32401825023655   -2.07757988117453
O           1.58082703529003    1.41112132119698    1.60028497426374
H           1.29590607082989    0.10131831066949    0.84201662761822
H           0.69120883368562    1.56571734037568    2.04842745745731
H           2.20072193978711    1.24585536726129    2.31383581271972
N          -0.13612709774019   -1.31328810177521   -2.51908344807698
H          -0.59287612549974   -1.56049416788889   -3.38970438129013
H           0.87275235117573   -1.07462910862614   -2.63103745208233
H          -0.60790887029137   -0.53335887358884   -1.97682227978627
H          -0.23157730000160   -2.05311882217291   -1.73642090141791
