    23
        -45.37467528  Gyration_radius:  2.35093232883 Dipole_moment: 4.963
 S           0.30894528527082    0.59609260018223   -0.85147106307455
O          -0.86963529912322    0.57750417157360   -1.70863223336308
O           1.52476492017846    0.50813780785898   -1.80314845576273
O           0.40474612762221    1.80236462556830   -0.04909569419969
O           0.33301087228167   -0.59318250727505    0.02488499670461
O          -1.15837062495910   -2.73067634816446   -0.34360688426874
H          -0.97169488477802   -3.31372252760173    0.39413716766713
H          -0.48313086595889   -2.01236782685749   -0.29978771102141
O           2.03644216100287    0.83126328381070    1.76650518765544
H           1.40684743127200    1.35350204138125    1.22197622191172
H           1.69599267042210   -0.06781340205514    1.72536791535189
O          -1.56154469786490    0.50015141492358    1.52376081662587
H          -0.79443232582213    0.02171968679545    1.14537160862468
H          -1.32712477899706    1.42677716083625    1.41029388974700
O           3.63023350788404    0.92328533845102   -0.33283672855213
H           2.36793212571237    0.61654464285841   -1.27883889512154
H           3.87922530429848    1.84221234046502   -0.45250171663056
H           3.20278679225255    0.86692486485295    0.55857750392850
N          -2.77899440346832   -0.64018079940743   -0.53258567074920
H          -3.72954736975165   -0.59072406609659   -0.88006060597588
H          -2.06672352522704   -0.11838241491664   -1.16341787818688
H          -2.64187751579810   -0.18198147063147    0.39882496822205
H          -2.40785090647054   -1.61744861655672   -0.47371673950999
