    23
        -45.37467526  Gyration_radius:  2.35115601795 Dipole_moment: 4.961
 S          -0.43595241631162    0.13653995341595    0.98335288938273
O          -1.68685087171056   -0.48087903398369    0.58061790654194
O           0.63631024129641   -0.23906108385644    0.03881339281141
O          -0.53143069693691    1.58613387347597    1.10044000279457
O          -0.03293040329454   -0.37489517764702    2.38610358853602
O           2.50369941546347    1.41107278734764   -0.80901189159358
H           3.02411461646532    0.91636332991921   -1.44422819782876
H           1.91573007790652    0.75255687060993   -0.36802492800993
O          -0.64813023556682   -2.73037956296550   -0.29184515022403
H           0.17585905015960   -2.33909181999022   -0.59825582027930
H          -1.21001700766827   -1.95864485811132   -0.05838236798136
O          -0.92971207440806    0.46077987478235   -1.98348324967251
H          -0.28514031491641    0.05964162587113   -1.36369418724985
H          -1.78246723977904    0.23770884342399   -1.59680447128945
O          -0.22404485709235   -2.96794468798273    2.29986974526447
H          -0.34363209387916   -3.07530655236245    1.32265806300228
H          -0.04639994255725   -1.37353708990021    2.39439538093536
H          -1.06442265900638   -3.20231922669133    2.69952954918857
N           0.19395777529902    2.68402230276471   -1.08580643379333
H          -0.33152104299454    2.03203585886471   -1.71425692214614
H           1.20897936677784    2.43037309957164   -1.12761102455967
H           0.01599791313731    3.66475734313891   -1.26812049505678
H          -0.12199660037275    2.37007333031463   -0.09625537880324
