    23
        -45.37771061  Gyration_radius:  2.35017052006 Dipole_moment: 5.313
 S          -0.30856816504604   -0.77048336798405    0.85943439303872
O           0.22401715321906   -0.73921362040861   -0.50614472576075
O           0.24335703532782   -2.03337281296788    1.56393768055347
O           0.15690348687282    0.40466299120332    1.60010783581776
O          -1.75981138834709   -0.85935361416876    0.86174138592419
O          -1.16701464900841   -0.63070399854754   -2.72861697554804
H          -0.54875509293206   -0.45318463639501   -3.43905402450923
H          -0.61960841077762   -0.81190322571028   -1.92727952946039
O          -0.43659123938633    2.32317129641496   -0.07175078516715
H          -0.22422123557735    1.69275572431620    0.65979964604148
H           0.35340445530279    2.34519880033260   -0.61624081508934
O           2.78974450003151    0.55780497738161    1.72790054668955
H           3.03791374241859    0.59225874393992    2.65317201043697
H           1.80678257994546    0.58389017916238    1.71106888793429
O           2.53288688802156   -1.77797036252531    0.41451486579607
H           2.88080675088694   -0.98387452375955    0.87102727461405
H           1.18672636131529   -2.10792537091676    1.23836329770104
H           1.96454819120190   -1.43116785876239   -0.29032101249680
N          -2.45884604259935    0.84199451645107   -0.93519248473456
H          -2.15848815115955    0.37546283406525   -1.82037781133238
H          -3.41150576218038    1.18676318741846   -0.97300316917901
H          -2.32398668822188    0.10257495317134   -0.16419807206540
H          -1.75969431930085    1.59261517827630   -0.68888842917968
