    23
        -45.37273088  Gyration_radius:  2.32876471207 Dipole_moment: 6.073
 S           0.24305076993108   -0.07697833014688    0.87605177609687
O          -0.24124370596011   -0.27981569777761    2.33511970963847
O           1.02237280221629   -1.23949953390962    0.47768265128913
O          -0.92992081801745    0.11388435411566    0.02513465902387
O           1.04862284678966    1.14868946785848    0.91110042608062
O           2.10604072720112    0.08168778859421   -1.56069035985084
H           2.67830048083626    0.68747402000488   -1.08520290611327
H           1.78124658191128   -0.53744992010198   -0.87667388999301
O          -0.25705347280918    1.07368055846318   -2.34027828497008
H          -0.70492091073339    0.55303826026776   -1.63949883058418
H           0.65364556233409    0.70739512661711   -2.34340923061792
O          -1.15149461281956   -2.57590031759251   -0.27539885360362
H          -0.20367986025157   -2.37269751892695   -0.17779072104593
H          -1.54451083871101   -1.70235575340149   -0.41080440778860
O          -1.32571438779395   -2.64070838646333    2.35411166766004
H          -0.70574828462976   -1.16181238998622    2.40391440321225
H          -1.41064416861683   -2.76172278440078    1.37389086048597
H          -0.65676205165790   -3.26504539270916    2.64357198856602
N          -0.08590448189886    2.89901475828887   -0.54064260906090
H          -0.17189561699241    2.27632871391883   -1.43671634367920
H           0.41495432039775    2.21591069342032    0.16045861113387
H           0.45273686311587    3.74528568610242   -0.69135323681777
H          -1.01147774383815    3.11159657776329   -0.18257707906334
