    23
        -45.36280966  Gyration_radius:  2.42372363526 Dipole_moment: 5.907
 S          -0.25555550047968   -0.39497294284145   -0.95357662221203
O          -0.89820999657947   -0.85293078325058   -2.27443519546604
O           1.04809538973230    0.13825773321417   -1.23024775970419
O          -1.17822293931587    0.72376317680631   -0.45090571393859
O          -0.30452881115415   -1.47830939884734   -0.00821543330457
O           3.10548453194071   -0.78201669061200    0.31154044532723
H           2.49066431183061   -0.39943847195423   -0.33757432573463
H           3.17454228055278   -1.71401413658778    0.09760190897175
O           0.83595791088750    2.38496841924692    2.02491256247966
H           0.14185976310235    2.60200480237485    2.64875033488678
H           0.95799886913125    1.40531204739818    2.08063131534990
O           1.06330630999593   -0.26288085245853    2.05035044042058
H           0.46450247723473   -0.74991475305817    1.46498397935146
H           1.95090407727658   -0.41888401556721    1.67687637828511
O           0.30993502287920    2.71724023008000   -0.51627807496736
H          -0.65678238438861    1.63512224357763   -0.49964960092524
H           0.55696013412721    2.73900970067341    0.44898349915619
H           1.02830027143757    2.24835275797372   -0.95924585911136
N          -2.88604867285195   -1.96252575186388   -1.09842180089121
H          -2.25724430363027   -2.12149739344246   -0.31625854254700
H          -3.33013699782096   -2.83391948156409   -1.35637354478475
H          -3.59659240189964   -1.30114435833328   -0.81471529532070
H          -1.76518933199649   -1.32158209096062   -1.98873312531984
