    23
        -45.36280965  Gyration_radius:  2.42368311264 Dipole_moment: 5.904
 S          -0.85026762874361    0.22672560106841   -0.59759034038351
O          -0.55225438443271    1.52432377762706   -0.06108586601291
O          -1.11127724142000   -0.76117623649147    0.54757453384455
O          -2.18861937434246    0.29440541050335   -1.35364188053704
O           0.14887377135812   -0.34071939819673   -1.46327890295136
O           2.31128473625973   -0.10174482639865    0.22588020439229
H           1.62228596157361   -0.35958669088493   -0.40438533421943
H           2.46523260890943    0.84468199331864    0.04632391678897
O           1.95531276083451    2.50078953449288   -0.52460322868638
H           1.02440163852320    2.30750696487619   -0.32014980221518
H           2.00198268542374    2.61650677438065   -1.47519368639301
O           1.62960834131970   -0.14235220261308    2.79439299824664
H           1.76994879806265   -1.04068447639445    3.09659193718139
H           1.93966948692498   -0.11735275668263    1.85579547372494
O          -0.84589985236940    0.67221714391599    2.56443466882551
H          -0.76918268544549    1.48877075630831    2.05506353088390
H          -1.08424668777329   -0.23451173311859    1.45687066695992
H           0.08710193820384    0.41193456518469    2.79893909765260
N          -1.94424611538607   -2.07244142447591   -2.30468737372174
H          -0.94046151814705   -1.92031609728418   -2.26325797703948
H          -2.27739987630814   -0.62503135067586   -1.80031495655189
H          -2.20066852377330   -2.37865158681557   -3.23397734939026
H          -2.19117884926930   -2.79329375163187   -1.63970032039945
