    23
        -45.38152960  Gyration_radius:  2.23399622315 Dipole_moment: 5.500
 S           0.94651262074659    1.06180835672505   -0.47396799643698
O           0.61803595995880    2.07023770679335   -1.44573911584234
O           0.74422105263752   -0.29914857797391   -0.97917682200037
O           2.43798288304086    1.21104920328216   -0.07514116746414
O           0.15353307189870    1.23362455491064    0.76706839119094
O          -1.38521768688636    0.87847781821524   -2.61385318499730
H          -0.64380153505232    1.46307224633053   -2.32284696963383
H          -0.95312970976977    0.06484965882126   -2.88826797357009
O           0.47449829335132   -0.81080578869595    2.34744828650623
H           0.35675459793225    0.00901584206004    1.80204252070548
H           0.58569966983993   -0.51821962256158    3.25307072284121
O          -1.04970714687274   -1.84862970741248    0.23320904968889
H          -0.34956760252745   -1.44273016931594   -0.32328041768917
H          -0.67745719792194   -1.84124054561095    1.12598703232742
O           2.61364323955705   -1.26818957885464    0.68978927848451
H           2.70481825874288    0.32544017987214    0.28729943422066
H           1.98973025006652   -1.30310307844408    1.43721161120138
H           2.06500183227085   -1.37590460956213   -0.10190095112513
N          -2.17283210353410    0.48813570901851   -0.13276761496037
H          -2.04687751847348    0.65492602967423   -1.17656882242248
H          -3.06630745465312    0.82098845390645    0.21187069656040
H          -1.99918542177277   -0.54271753139801    0.05309799301201
H          -1.34634837258813    0.96906346022080    0.32541600940015
