    23
        -45.37884002  Gyration_radius:  2.38608714901 Dipole_moment: 5.856
 S           0.57357970239316    0.12475114340312    0.76662607550313
O          -0.58208875063946   -0.29322667565131    1.54946136273314
O           1.42486465939033   -0.98381934832343    0.39001104415404
O           0.12915540939498    0.85406067993989   -0.44491190024822
O           1.40792877514050    1.12077152211797    1.60678444450864
O           1.98519880103422   -1.80515059177415   -2.04410052729041
H           1.90562400964863   -1.57312909521239   -1.08822286735540
H           2.70819213291637   -1.27343849860983   -2.38064395156523
O          -1.16304720709397    3.06850614240947    0.24446978269600
H          -0.60745274088456    3.79570836894168   -0.04158094933626
H          -0.73039109932719    2.25026174301134   -0.08171230729516
O          -1.05563217529714   -2.51499300537468    0.26037810063256
H          -0.23868835175725   -2.99031494392949    0.43605177439710
H          -1.00854026511558   -1.72317291086717    0.84918335533266
O          -0.66831751591392    2.12707325839582    2.72128460848903
H          -1.01532049631792    2.63666566786985    1.95970430248723
H          -1.02275732456722    1.23105842191639    2.61024956098656
H           0.72413366836603    1.62420215129025    2.14610700481350
N          -0.57964104769154   -1.13920705076956   -1.93212507420314
H          -0.90136280442183   -1.79665504675212   -1.15846400431071
H           0.35384868880406   -1.47927581258033   -2.26424650732989
H          -1.26103806380863   -1.04198007482158   -2.67658271597340
H          -0.37824802422796   -0.21869606461967   -1.42772062180835
