    23
        -45.37691834  Gyration_radius:  2.38451454267 Dipole_moment: 4.473
 S          -0.85791625112171   -0.30590543201448    0.08112260925185
O          -1.27904271769112    1.07858660879239   -0.09346404762450
O          -1.88469880515554   -1.28455001184088   -0.15440923237611
O           0.36232094680083   -0.57180520216594   -0.70782610690849
O          -0.40925210081809   -0.39057036492222    1.58570782219556
O           0.38965322803035    2.27624028276932    1.57339674733133
H          -0.39828484950778    1.99091547628186    1.06124238674365
H           0.46647111239494    1.61731934465369    2.26930889406622
O          -0.43603797626304    2.53322595544325   -2.15087096711171
H          -0.77042781396138    2.14056802837006   -2.95864736928139
H          -0.91247813184480    2.08743349390357   -1.41575263327544
O          -0.23380128508688   -3.24971878760299   -0.73386717123795
H           0.42529168504351   -2.62214410403263   -1.05248358641518
H          -1.04197758084263   -2.70126959994562   -0.66774460952841
O          -0.07310939694780   -2.94055145014991    1.87930821842874
H          -0.89898155798495   -3.30069065120902    2.21017994423425
H          -0.02782406360426   -3.20878770680381    0.92446342450194
H          -0.24679015119756   -1.35910925958616    1.76440558888130
N           1.61282597732288    1.65637354020707   -0.68918553642346
H           2.60894466410600    1.68947610913892   -0.87343132680656
H           1.35221395380655    2.03052387405079    0.26217078052845
H           1.05025042671085    2.18206809523928   -1.39515819785624
H           1.20265069781137    0.65237175141599   -0.71846565131906
