    23
        -45.37884003  Gyration_radius:  2.3860374145 Dipole_moment: 5.855
 S           0.03493464005547    0.46125823892471   -0.84719636303451
O          -0.76270412996729    1.00076099526423   -2.05829350286612
O           1.09647079168952   -0.39097105098490   -1.33941324520255
O           0.53279936308975    1.59183975456160   -0.07451198748423
O          -0.91272457373143   -0.33386623473561   -0.03045955938306
O           1.50557810698314   -2.92224299385565   -0.75704403631601
H           1.44014048129222   -2.00029496797032   -1.10280369712400
H           0.95459295475448   -3.45470228427693   -1.33282339623093
O           2.47418544524544    0.32534710083177    1.12980830284720
H           3.00598978855937    0.07005527762079    0.37061691477893
H           1.80004039549490    0.94430898077395    0.75803643176458
O          -3.02474341146913    1.14218465361263    0.60958356802414
H          -3.76680494079368    0.75340195356745    0.14324061078146
H          -2.25859200221215    0.55191416618173    0.44296732686339
O          -1.64603953639309    3.01833474944444   -0.74900218185656
H          -1.19234355318620    1.84386906030908   -1.71693116160626
H          -2.29504389630424    2.55491053600027   -0.17973763671608
H          -0.79923154197203    2.94294800330832   -0.28196179219466
N           0.75850487195982   -1.64532425523299    1.44406177210632
H          -0.05044855659830   -1.14966817899114    0.95177273455837
H           1.07539123762873   -2.38483264657366    0.77312406732476
H           1.52639680072589   -0.90888600091147    1.49202386000133
H           0.50365125514258   -2.01034486686717    2.35494298095694
