    23
        -45.37322513  Gyration_radius:  2.44728412924 Dipole_moment: 5.796
 S           0.11156548961840    1.15525184956042    0.27245421884446
O           0.34376273828186   -0.02678396023454    1.32198780255643
O           1.04198141956675    2.20262050176579    0.59127323323736
O           0.39732461326116    0.52212479391523   -1.03440897346858
O          -1.28492754495815    1.49446865255796    0.40009663889876
O          -3.45388635051747    0.64325084423077   -0.75514754608472
H          -2.69909356408653    1.13111862074024   -0.34251266834354
H          -4.06841566613476    0.47141982115731   -0.03907869109040
O           3.62570490311481    1.69311703322323    0.69149876301877
H           3.93037412835989    2.02766344946547    1.53634056447200
H           2.69976172640790    2.01298034817184    0.59519097182490
O          -0.96408079945250   -2.34245007039114    0.84749098425646
H          -0.61501855014683   -1.49591827585561    1.19338070065533
H          -0.26254672823218   -2.98509225970226    0.97086728849181
O           2.51416145757197   -0.66067671167097    0.13102127716268
H           1.25308120172398   -0.33897514656529    1.03723829154374
H           2.02806149361924   -0.33533781762822   -0.64387235264744
H           3.14157506829835    0.06315502453373    0.34831027599536
N          -1.56066797350142   -1.07275859026429   -1.44905350304133
H          -0.72781540228929   -0.37904783666494   -1.37217173966777
H          -2.43028336905400   -0.49968033469340   -1.27720141479129
H          -1.58229340986953   -1.52732237695992   -2.35519283214476
H          -1.43832486158410   -1.75312753869174   -0.66851127968202
