    23
        -45.37322519  Gyration_radius:  2.44727651835 Dipole_moment: 5.795
 S           0.10164748617291   -0.93154329389860    0.73789768840119
O           0.03010865809728   -1.99809294927868   -0.23105743155528
O           1.33817111347258   -0.03460481028916    0.26931524877349
O          -1.05600527593533   -0.01679098384431    0.62216239243580
O           0.35153387178054   -1.33365343692237    2.09445811808049
O           1.09192898146279    1.22415457795320   -2.10837406067733
H           1.38509723588914    2.11001217881857   -1.88531111172320
H           1.33821543638881    0.66132490781781   -1.34636571133973
O           0.79702791118302    0.48155612556457    3.95255723756794
H           1.60768122994174    0.21977921694662    4.39169735989233
H           0.55714704127931   -0.26968646503253    3.36345145582269
O          -1.19839639173780   -2.27944744950031   -2.50600785079663
H          -0.53179655925603   -2.60901688197608   -3.11181223266335
H          -0.78988990065026   -2.33962258122587   -1.60740337404054
O           0.49010994216960    1.89371074496867    1.71609841891905
H           0.65816084273186    1.60802933716085    2.64070434498296
H           1.20073257518908    0.77170778453737    0.84938669998701
H          -0.37155339748491    1.50456168792897    1.49527375343889
N          -1.42141781373258    0.28656281674694   -1.89262907145046
H          -1.43038548466222   -0.68948014302416   -2.29445703857937
H          -0.53758323252704    0.76425616304859   -2.17142264299269
H          -2.24469017003788    0.81280189628026   -2.16372367939321
H          -1.36584408973718    0.16348154720923   -0.81443853308885
