    23
        -45.37484933  Gyration_radius:  2.27253503046 Dipole_moment: 5.306
 S           0.25214548474035   -0.43421493709197   -1.29700835074255
O           0.95841395866395    0.47341302782130   -0.39262629638686
O           1.15349411945057   -1.49816828945914   -1.73725903229138
O          -0.94373619235559   -0.97375619265350   -0.65068517579619
O          -0.17617265458425    0.35060486919487   -2.55663090171990
O          -0.04723185624518    1.16410485849068    1.89777626495097
H           0.34204570091306    0.96861698808005    1.00559764612268
H           0.27933684775046    2.03003835714350    2.14511688108892
O           0.02739977003333   -1.60476762601381    1.71386043499470
H          -0.47544455274915   -1.52144246595912    0.86937794981973
H          -0.06024921530585   -0.73176495707992    2.12755441600513
O          -2.37993972282835    0.99753775503630    0.40181204473784
H          -1.77055339335938    1.17873817891778    1.13532427831464
H          -2.03972794215157    0.16732193455428    0.00957633003843
O          -1.58665542472214    2.34063810782589   -1.69703501673539
H          -2.33971501945476    2.44375898981042   -2.28266867719041
H          -1.94392548481677    1.93970863844198   -0.85620091951382
H          -0.66961968956399    1.17035605522192   -2.25316790735604
N           2.32575568703344   -1.71188034649160    0.50487574768807
H           1.92043083822213   -1.71998671008888   -0.51661757466565
H           2.95654593775748   -2.48613597644260    0.68604154529561
H           2.78205476472949   -0.80986458845206    0.61861803336219
H           1.43534803884197   -1.73285569080602    1.12436830997923
