    23
        -45.37484932  Gyration_radius:  2.2725356182 Dipole_moment: 5.306
 S           0.80225131541908    1.10312697539332   -0.27184210045398
O          -0.05892838836809    0.64048321258658   -1.35963691102048
O           0.63266220592269    0.25872082903686    0.91083475210549
O           2.20915219442060    1.12430335807514   -0.66988044572842
O           0.40901863882258    2.55247047138825    0.08986242104325
O           0.37143210413926   -1.95460198538447   -1.24695940506581
H           0.16716162784407   -1.02121799594052   -1.49193511606251
H          -0.27544659633739   -2.16370709583844   -0.55501879790353
O          -1.19326886613174   -1.58228845762276    1.01559781246587
H          -1.45668615559881   -1.72344327909327    1.92573812294469
H          -0.52255485904683   -0.85049629477150    1.03443645908079
O          -2.54618523623271    0.32379863176888   -0.48228618523328
H          -1.72545834867601    0.46578612555615   -0.99716458504374
H          -2.36336017766818   -0.47568300904849    0.03697768093854
O          -2.01205480948598    2.41840297042003    0.98937843002144
H          -0.50354639346170    2.52669816939046    0.50716089020916
H          -2.50166072317208    3.16217654486882    0.63188268724566
H          -2.32958433358138    1.61419262960078    0.49158051842988
N           2.61705554552591   -1.31709410424845   -0.10400632514188
H           2.58970523351357   -0.25303032224925   -0.37757279129971
H           2.47713878800340   -1.35169605496435    0.90297454924288
H           1.73644935044859   -1.72070468967393   -0.59253560034894
H           3.47670786370382   -1.77619664925118   -0.38758608042481
