    23
        -45.37131438  Gyration_radius:  2.39841171369 Dipole_moment: 6.336
 S           0.55301820317922    0.94530165401416    0.47979994322336
O           0.30058584461776    2.15680307943792    1.41302197068777
O          -0.77441841537493    0.37077392921973    0.15263615906301
O           1.15167796162122    1.47821526167738   -0.74323767354958
O           1.38531166633877   -0.02014759361304    1.15985560207983
O          -1.61393565577039   -0.67923719658339    2.47156717018571
H          -1.44438125540462   -1.61560206043313    2.34884186566845
H          -1.42618769711178   -0.25488439901955    1.61121008844533
O           0.43894662286738   -1.47184206446166   -3.11109911974199
H           0.40413838972135   -1.81031593170472   -2.18114209106653
H           1.36777287919147   -1.44732459881928   -3.34871209156711
O           0.35404194854664   -1.94229348234189   -0.50399979549313
H           1.14128622640961   -1.74066768374619    0.01745022042609
H          -0.24874724338623   -1.21368501828526   -0.26234992552393
O           0.41466224813309    0.74395951798313    3.56088081906967
H           0.30030078360592    1.79176123996699    2.34704507633869
H          -0.42320508362387    0.25081568419200    3.45313191048524
H           1.06534900419922    0.24710048085993    3.04121162031477
N          -0.61771526165918    0.85677240400874   -2.42945068016411
H          -1.25362358346857    0.62629252532258   -1.65135245595327
H          -1.02328291728994    1.50387644850452   -3.09622129641440
H           0.22082997760614    1.26673734658820   -1.85864576789745
H          -0.27242463293382   -0.04240953279450   -2.87044156862104
