    23
        -45.37180074  Gyration_radius:  2.34695329025 Dipole_moment: 5.249
 S           0.85589805421281    0.35208407804794    0.20146164456416
O          -0.26850176755199   -0.36518730147135    0.80101485942631
O           1.36469259325240   -0.41528775148195   -0.95136095763483
O           0.28365407895563    1.65994220540007   -0.44088346074573
O           1.87861781038150    0.70519978014224    1.14951329186031
O          -0.67057390371524    0.18422688722435   -2.61571066692008
H           0.16431070810767    0.04647952813947   -2.12846965913558
H          -0.85670967199211    1.12068936651455   -2.51481710673584
O           0.17571011373421    0.92526421626551    3.15073376539491
H          -0.40110116160040    0.30673024534548    2.68376543832440
H           1.02346632343976    0.82140579783436    2.67651918868217
O          -1.93429903883061   -1.43314917829300   -0.90357543193508
H          -1.76137079691968   -0.82885812873481   -1.65859124973458
H          -1.52473703728334   -0.96909622714115   -0.13429280695590
O          -0.14043717732062    3.08663903729627    1.67363718076279
H          -0.14461510411575    2.36385049957399    2.35409999905847
H           0.65942107046484    3.59173880531379    1.83645188978842
H           0.07462263993320    2.26494748852668    0.32554104409852
N           0.25776383637648   -2.72981014024812   -1.10834220758235
H           0.45058136859083   -3.19654973484685   -1.98864403184466
H           0.83220443948197   -1.81366867849653   -1.03065825287815
H          -0.77902333015933   -2.34349089244193   -1.05835084018205
H           0.46042595254936   -3.33409989247260   -0.31904163967449
