    23
        -45.37467458  Gyration_radius:  2.3509905518 Dipole_moment: 4.956
 S           0.07467561860831    0.13538412154344    1.07555246166674
O           0.35269866949199    0.47610113038807   -0.33498858206834
O          -1.27078770195930    0.55326771739397    1.44855592488426
O           0.30710714286321   -1.28086176697325    1.29576463132456
O           1.03489271074292    0.96277597685719    1.96151114153544
O          -1.17459131309173   -1.54993205112221   -1.10536234742132
H          -1.01039439656824   -2.15049804925997   -0.37130340786440
H          -0.50099077870707   -0.84863675160243   -0.98265602081386
O          -1.09905236294224    2.13665784550744   -1.77173274846771
H          -0.46081509797841    1.65360769079729   -1.19453672114869
H          -0.72622874660588    2.11263419254980   -2.65458851094471
O           2.35976051931576   -1.51050587517500   -0.32672785761764
H           1.59855219408916   -1.63188468592067    0.28306099982460
H           2.05603401757287   -0.84902080584904   -0.95606209966243
O           3.41218197999480   -0.02183833035916    1.57839158962082
H           3.20693212878287   -0.61039746679609    0.80869165782355
H           1.97331895207918    0.65306285955403    1.81666959530137
H           3.59879634280271   -0.60374858188438    2.31824436725855
N          -2.79906091876185    0.47734246484419   -0.59357647576763
H          -2.38586177877630    1.22533109932771   -1.19905903288167
H          -2.46379874511032   -0.44968878244203   -0.94641607296462
H          -2.27734616569639    0.57727172129213    0.35253574344039
H          -3.80602228011903    0.54357632747316   -0.50196825474422
