    23
        -45.37886613  Gyration_radius:  2.31208381681 Dipole_moment: 5.415
 S          -0.24229974185684    1.02652248435598    0.61862477638185
O          -1.20158799807858    1.44709688284340    1.75884359681457
O          -0.20570448669214    2.10465834172026   -0.35802474106916
O           1.06494956415872    0.74170258245660    1.19409139749186
O          -0.80132956049562   -0.18736792943290   -0.00173331286135
O          -0.68156328883518   -2.20364793144844    1.68209736860470
H          -0.72110527977750   -1.49378877435567    1.00195686688338
H          -1.54793676226301   -2.61391252731797    1.69016629695851
O           2.07804859750308   -0.76207541014441   -0.67816117534337
H           1.57482338827690   -1.57294931916445   -0.56722379861188
H           1.83875026364603   -0.20567949783540    0.10336281938896
O          -1.42821290534301   -0.31100061411841   -2.55516153647505
H          -2.22120410137087    0.21516442600538   -2.67161353960793
H          -1.28540140315983   -0.36358197903277   -1.58011938909373
O          -0.12395328301318   -0.20367595579683    3.41631650414036
H          -0.92790043284247    0.86984826502507    2.53116496303136
H          -0.33014702405485   -1.06763810861887    3.00355007790654
H           0.69991847764185    0.07649411003712    2.99088707984432
N           0.91578693040185    0.91247635016003   -2.35535655586302
H           1.44857804042664    1.40912443612882   -3.06072500335828
H           1.50045370643328    0.20068902167696   -1.82671083214482
H           0.52415322404142    1.56016864085334   -1.59671878241767
H           0.07288409525357    0.42137250601049   -2.73951307060578
