    23
        -45.37749252  Gyration_radius:  2.24583968119 Dipole_moment: 7.301
 S          -0.75691842717288    1.32413993410106   -0.14179184584913
O          -1.62757388619368    1.85331143285119   -1.29819647527556
O          -0.53799229514042    2.38935607669688    0.80382556810016
O          -1.47557497765475    0.19056318332650    0.48100280167526
O           0.50606555330471    0.82155629968072   -0.70603959559589
O          -1.34180848840042   -1.84367480460261   -1.26242062889119
H          -1.58634737195679   -1.16494047569611   -0.60427462242543
H          -0.46432918041859   -2.14766786569622   -0.99891660202134
O           1.33472629136374   -1.59548348357059   -0.25064960622390
H           2.16928519085994   -1.73240605216045   -0.70073351906587
H           1.04500428827214   -0.66864312369416   -0.47198869093905
O           1.55486714846156    1.56625625130239    2.07996449435397
H           0.76487921886310    2.02857889757613    1.69504265632341
H           2.22055635527280    1.61526265213810    1.38984415323326
O          -0.78505479109135    0.11603712145833   -2.99635324266338
H           0.06088133079945    0.30220388981514   -2.56661354692795
H          -1.10752626863196   -0.71638726176639   -2.58177366468114
H          -1.45599278138981    1.24090270788930   -2.07250546808566
N           0.30155262377712   -0.74383715054392    2.07688745916942
H           0.88639019149806    0.13222772465881    2.23635143261162
H           0.81436246764550   -1.36926130638126    1.43117752189856
H           0.03639993014786   -1.20266945977615    2.94146745659944
H          -0.55585212222079   -0.39542519760865    1.51669395467886
