    23
        -45.37878059  Gyration_radius:  2.33007769673 Dipole_moment: 5.070
 S           0.33741989704081   -0.08384969366490    1.38388007713459
O          -1.07670993691299    0.00076785285936    0.96596359631168
O           1.15932549538349   -0.42317573987081    0.21386653015279
O           0.79266493764739    1.12555184072361    2.01918100626985
O           0.45058335811491   -1.25295110624428    2.39280696384712
O           0.41566540860352   -2.61420797337061   -1.01290607869715
H           0.75187060218648   -1.81538677495722   -0.53952362429076
H           1.12676963150638   -3.25634204491283   -0.98623601921842
O           0.76022933473554    3.21028911283497    0.45736995399910
H           0.78537920886788    2.51384923075385    1.16203495271060
H           1.65714153906511    3.26488885199930    0.12138670182119
O           0.57269964693433    0.23446050642708   -2.28386576102568
H           0.97425290213156    0.05280267219210   -1.40486796133434
H           0.27086022414181   -0.62529205343618   -2.59126406613433
O          -1.29496216644646   -2.66184474738778    1.09859069038684
H          -1.66825441900447   -1.77592381811111    0.96988768611953
H          -0.82168667879444   -2.86398065995402    0.26782101570187
H          -0.17602387864307   -1.94094728760847    2.03823329779913
N          -1.03186496565549    1.80300814340823   -0.87856266807115
H          -0.52078402522007    1.28668657418874   -1.63954545760902
H          -1.89821397347153    2.22268112369533   -1.19676461417137
H          -1.19192123909476    1.08215612866090   -0.10010216531326
H          -0.37444091312130    2.51675989176688   -0.45738406638647
