    23
        -45.37622495  Gyration_radius:  2.25341507145 Dipole_moment: 4.594
 S           0.14782376439312   -1.10705860675547    0.73035575483508
O           1.48575731225150   -0.62481749509908    0.03976662276991
O          -0.92908366970758   -0.31521314753946    0.10987733080656
O          -0.01357633384838   -2.51648526271878    0.49442544220499
O           0.34465904457168   -0.70760739803294    2.11545968311724
O           0.29103059531945    1.72267002876183   -1.05547884507495
H          -0.32489505297005    1.00916614819221   -0.78365877785634
H           0.82352247128928    1.33422696698975   -1.75577913219483
O          -1.03028796417326   -2.22738667744082   -1.91920483212272
H          -0.68061746147314   -2.53410696726345   -1.05259727534814
H          -1.72076849066374   -1.60121313893848   -1.68237351067320
O          -1.94816762593010    1.36580611687137    1.90430204682452
H          -1.74740432117326    0.72691464131385    1.18439231289703
H          -2.07680197161106    0.82753397908719    2.68832849541746
O           1.05918475515796   -0.78390905869553   -2.53837427935076
H           1.67519608637847   -1.34554410632625   -3.01263515396549
H           0.22205536390815   -1.31871306470026   -2.44213064154037
H           1.39533685356144   -0.71818195905910   -0.94109358689133
N           0.64009177492194    1.79576967220859    1.59349268300105
H           0.72616286375368    0.75857682737251    1.86349496894031
H           1.28710690156064    2.39387998153902    2.09549848536917
H           0.74244979974218    1.87408080596686    0.54934264479800
H          -0.36877472524903    1.99161171427080    1.81458956403691
