    23
        -45.37412183  Gyration_radius:  2.3697484453 Dipole_moment: 5.772
 S          -0.89040659892907   -0.90107625847343    0.30505213383594
O          -2.25861882025786   -0.82069662663161    0.73564309914873
O          -0.52201208702425    0.50916986996516   -0.36925220920510
O           0.06823657076224   -1.04688221801972    1.39566644591605
O          -0.65489335920628   -1.85245563846710   -0.77436704915185
O           0.50547156408951    0.89549441410348   -2.86694489229871
H          -0.19853627657975    0.81406908115561   -3.51295957360331
H           0.06997714000110    0.94520192519936   -1.99570364840014
O           2.44676133334873   -0.34911548836160    0.63089242135642
H           1.60706556970512   -0.69734663173804    1.02853465133674
H           2.44898334998086    0.59228298326177    0.81886488359116
O          -2.78326940892721    1.19449112425803    2.36410942518644
H          -2.66963301492468    0.37547127504236    1.83163385341670
H          -3.60612781121716    1.58758728196630    2.07010953260398
O          -0.17450726866253    1.55834354597294    1.93602839036450
H          -1.09645470345803    1.68377864059951    2.24020672987575
H           0.03784526307146    0.64406157539484    2.18945135308764
H          -0.39518334959892    1.09226305596371    0.43666465467305
N           1.64330618983454   -1.25801705955041   -1.71724098724223
H           2.17285317618929   -1.99341576839290   -2.17186542857763
H           2.14257676250957   -0.88444064292036   -0.86471858868637
H           1.42151610676406   -0.47062225414081   -2.36049015417563
H           0.68504967253219   -1.61814619627905   -1.34931506305415
