    23
        -45.37824525  Gyration_radius:  2.39098366191 Dipole_moment: 5.935
 S           0.89166781518806   -0.14596803125438   -0.30501898333068
O          -0.45280556483388    0.05314543169713   -0.89189060668281
O           1.89288998946203   -0.23119701462556   -1.48087752323682
O           1.24640421924553    0.99952952606131    0.52487551672415
O           0.93392710302976   -1.39465494154478    0.42715052854362
O           0.01415964939183    0.21220702833221    2.68357822693425
H           0.50889964488103    0.65446023460837    1.95004146602003
H           0.55748718918587   -0.54931017046827    2.90260858260731
O          -1.00936393432395   -3.12392566199029    0.77801008049580
H          -0.21981176377321   -2.58885681387506    0.52451816766522
H          -0.68290248526640   -3.82208819300437    1.34782239021216
O          -0.46840893536767    2.16052659083999   -2.50660476701717
H          -0.60299815419545    1.81190168761525   -3.38955848260795
H          -0.54953204388549    1.39539388884728   -1.89751783330161
O           2.08823841392900    2.31712221522082   -1.67085666912035
H           2.10191907211030    0.72782032762369   -1.70066036841277
H           1.21299015260222    2.50753121621971   -2.06869235715016
H           1.93187433211277    2.28493437886129   -0.71428782587159
N          -1.92367907112421   -0.65086268564572    1.11235951923155
H          -1.28770194012101   -0.27898049643569    1.87763734872973
H          -1.45884281500089   -0.31857529429488    0.20649453127881
H          -1.84336435417732   -1.69242383699776    1.09339480265287
H          -2.88104650907513   -0.32772938578598    1.19747425563126
