    23
        -45.36460676  Gyration_radius:  2.42665659481 Dipole_moment: 3.066
 S           0.17463964776078   -0.35193563107840   -1.07762105657264
O           0.23937216165810   -0.33351281798716   -2.61510484001833
O           1.45907014253848    0.04362821188237   -0.55640923280662
O          -0.87437125604228    0.70363050563848   -0.76222689338615
O          -0.28586098297976   -1.64368367081148   -0.63356558046701
O          -0.17326352200288   -0.00606960493052    3.10112095157175
H           0.37799583443860    0.20559647346371    3.85654354763064
H           0.30428626108786   -0.71028623031464    2.60072318844275
O           2.07574999932424    2.27932694387030    0.76372818245144
H           2.00055310098654    1.44052376059329    0.26662520264102
H           2.36506169987618    2.94101478574176    0.13339506260932
O           1.21747875530991   -1.70738030122895    1.59408829217093
H           1.85002905977828   -1.14735134583681    1.13009832581337
H           0.58618651485642   -1.96123227634227    0.89945110812280
O          -0.49777536767877    1.92658854480648    1.34255781573656
H           0.43878176555033    2.21775084501186    1.24265359459617
H          -0.74288092858949    1.25800113372386    0.17979045072478
H          -0.48519439136416    1.23010353713423    2.05077284001845
N          -2.12530479861530   -1.31586737966490   -2.76080146261052
H          -2.81085741235045   -0.60264169382827   -2.54987812700629
H          -2.52255413375534   -1.97094619878194   -3.42138652172244
H          -0.67661280878570   -0.69342004874281   -2.88614103051951
H          -1.89452934101100   -1.80183753230965   -1.89841383742814
