    23
        -45.36822931  Gyration_radius:  2.41586200058 Dipole_moment: 4.985
 S          -0.19536911083486    0.51278927217207   -0.72344401473449
O          -0.45946470885298    1.78516306817098   -0.08210192761282
O          -1.37896022997623   -0.36777966449277   -0.67652072497023
O           0.34750964871132    0.61390325371697   -2.05746206099279
O           0.90204968149596   -0.24336348434652    0.10897053208540
O          -1.98646199484769    1.15324759662345    2.02580384747646
H          -2.17388333496037    2.00833184299738    2.41930864578865
H          -1.62154356177725    1.34162653195680    1.13944877415944
O           1.24444389866766    2.65892176832339    1.78865262394256
H           2.08319336698389    2.83300680953240    1.35947978217204
H           0.60539295080743    2.47996559120021    1.06848693534791
O           0.83363237247032   -1.62791597936911   -3.25027802386596
H           0.76597440248503   -0.72171651815555   -2.84221811150477
H           0.35160488839914   -1.56846139963959   -4.07733476736766
O           0.45520428085208    0.19609979057636    2.57007222451890
H           0.87808303812274    1.07752029339576    2.58912076799886
H          -0.50813400662811    0.38834892403544    2.55964404496107
H           0.73387144316544   -0.10828799813272    1.10900016927088
N          -0.17621146092044   -2.53561907341201   -0.99997218385415
H           0.23705907242218   -2.37945358546975   -1.96303186223138
H          -0.82862048196204   -1.62529176033234   -0.83771969461615
H          -0.67786804758671   -3.41343059304328   -0.91835634604475
H           0.56849789358680   -2.45760468639667   -0.30954864990036
