    23
        -45.37622496  Gyration_radius:  2.25339768795 Dipole_moment: 4.597
 S          -0.89242672154556   -0.17689388327045    0.97634485550989
O          -1.37009224734491   -0.73833565458133   -0.42202515411085
O           0.54100821848163    0.12552212867720    0.81636795398725
O          -1.66387347469405    1.04993563493602    1.10555299147016
O          -1.12368945114314   -1.17882836940318    1.98183840111312
O           0.91104529067055    2.75950113608039    0.91502896624229
H           0.39472369394797    3.04393111964670    1.67214601414543
H           0.93346960488327    1.77830398167259    0.97362250218458
O           0.94721897038663    0.20245985886148   -1.79656437447681
H           0.79245007145678   -0.69527700754798   -2.10478322505212
H           1.02334717234634    0.12317105643418   -0.82167992806032
O           1.07073674667006   -2.53922983469094    1.45640861646744
H           0.22469398933348   -2.17084351722244    1.79706185964905
H           1.68578839374252   -1.80225265931662    1.51589120073570
O           0.31543531327059   -2.64239706913004   -1.04382440265367
H          -0.08789517363489   -3.49943556061557   -1.19417662741008
H          -0.79368555964860   -1.50072816497263   -0.67837134025548
H           0.71639941821020   -2.68656892995915   -0.13093497862818
N          -0.74575369083939    2.12854613433808   -1.04369338642244
H          -0.22477155594076    1.37358297337427   -1.55884938001336
H          -1.30909450134290    2.70459923196014   -1.65947985143092
H          -1.31504830549340    1.66796888377906   -0.25635936565125
H          -0.02998620224732    2.67326854125779   -0.49952135748463
