    23
        -45.36823139  Gyration_radius:  2.3262149028 Dipole_moment: 7.049
 S          -0.22837565898765    0.57066910539724   -0.66590122579994
O          -0.28017642639606    1.46654488226937    0.48147511148470
O          -1.66981124480982    0.33170297551696   -1.16865757830965
O           0.55179195733449    1.11877527931276   -1.77017584108774
O           0.33419275349844   -0.73277156900676   -0.26758069759898
O          -1.37606785685139   -1.78746952162244    1.58517852090634
H          -1.71250131754763   -2.45632078114803    0.97283949401940
H          -0.60557201357802   -1.41441835458756    1.12325343153228
O           2.18653310178055    1.97527874219080    1.19757311601825
H           1.22319869017573    1.79860587685588    1.04623994704932
H           2.28510335020393    2.92776958401302    1.14164288637484
O          -1.51284955629827   -2.59702812175615   -1.13697915255912
H          -2.13095803929852   -2.05537623374951   -1.63274689277893
H          -0.75431226141043   -2.01939823934601   -0.95749737598356
O          -2.73251636465434    0.44283479685381    1.12811233040713
H          -2.25264225511549    0.36860157695768   -0.33113003462355
H          -2.39580495248482   -0.42193936356111    1.47063619886117
H          -2.05692523510878    1.09163789089670    1.36870829772754
N           2.69199339175839    0.26508836767662   -0.72783820622716
H           2.77282098485176    0.94986733289010    0.07423730320860
H           1.98036072188340    0.71900825994458   -1.40367993540511
H           3.57636591794914   -0.01688755688182   -1.13703064602107
H           2.10615234310981   -0.52477492911889   -0.39067907119815
