    23
        -45.37716562  Gyration_radius:  2.39568844193 Dipole_moment: 5.429
 S           0.49054975625479   -0.75706054862364    0.23006846271283
O           0.35572999952047    0.06979998560287   -0.98430449039417
O          -0.97124757004984   -1.22422859656608    0.58026817269003
O           1.30899591803065   -1.91964817314800    0.02209592841087
O           0.87678150760724    0.07305812010359    1.36618142356892
O           0.76374988074860   -2.14962886788018   -2.54401018412915
H           1.20940173846845   -2.23447094807918   -1.67690255777637
H           0.61647883003276   -1.19951203746649   -2.61687165009151
O           1.90996977488468    2.50652465891588    1.23623498056861
H           1.71879620602812    1.54373812340606    1.29785380630765
H           2.02392063077945    2.80791901636932    2.13941296810879
O          -1.45847002869434    1.14848058670520    1.96356846885459
H          -2.08114784785209    0.43846150186617    1.78573322847412
H          -0.58125094203720    0.70285716538741    1.95352036599495
O          -1.39745791164033   -2.97296194128934   -1.28025652490531
H          -1.14395681822933   -3.82835477512713   -0.92600609823476
H          -1.21047028590680   -1.89788845453578   -0.11654252544424
H          -0.67101409233268   -2.71899586122666   -1.90821289231803
N          -0.37435297547202    2.36260334139042   -0.12421918739906
H          -1.01701601912300    2.07700562349485    0.65811457854048
H          -0.78693552538225    3.02730804646748   -0.76841975760900
H           0.50683845736478    2.71401160178788    0.31735643812970
H          -0.08789269288987    1.43098243230856   -0.60466298409140
