    23
        -45.36364690  Gyration_radius:  2.45415778516 Dipole_moment: 5.100
 S          -0.72590786253794    0.23071792190131   -0.76984348374815
O          -2.22172998856995    0.52831733328232   -0.96482992513825
O          -0.65549353197290   -0.55318251580424    0.55884608279872
O          -0.27644004025202   -0.65456218355408   -1.80788576036329
O          -0.02659558429564    1.47219101193771   -0.61787807537517
O           2.62970819008888    1.12132370894915    0.07211180986377
H           1.79350050684195    1.44334612411829   -0.29712539703121
H           2.66345850450377    0.17773995082670   -0.17459881825816
O           2.10822962113724    1.16221648665448    2.65690863492781
H           2.59637451702503    1.88094326178513    3.06102522058240
H           2.40548508269660    1.12420235717127    1.71009291881430
O           1.96382305592055   -1.46401546053323   -0.47853238105485
H           1.25849494486010   -1.27734130847330   -1.11807101508938
H           1.52149523728775   -1.73980667814918    0.32822172027079
O          -0.44974683628947    1.39400278118379    2.10873436634542
H          -0.62763087436426    0.15945201018893    1.31875499722688
H           0.47731294593227    1.29835888477127    2.45950300180267
H          -0.37853684741790    1.98531139830491    1.34750126567369
N          -2.88372000979689   -1.75662386922023   -1.90954371594413
H          -3.48454887851398   -1.83832965921695   -2.71889166453920
H          -3.12502911060650   -2.47944090163237   -1.24486160057228
H          -1.91559833711621   -1.87407387843887   -2.19507092741062
H          -2.64690470453933   -0.34074676604764   -1.32456726378324
