    23
        -45.37811690  Gyration_radius:  2.3773712587 Dipole_moment: 3.965
 S          -0.33565102332860    0.26133540890673   -0.81015428409921
O          -0.01468865156419   -1.07212435944632   -0.26329212369726
O           0.81790061656592    1.15110865728605   -0.67247071258721
O          -0.64995099098849    0.09193636597267   -2.31447736860507
O          -1.52122480672177    0.80523749314131   -0.18224566673214
O           0.26690574767426    1.88383495023483    1.78647837255139
H           0.59739051648429    1.71999977320310    0.87196449951791
H          -0.57125783987677    2.33643315338026    1.65637821835257
O          -2.98726272073153   -0.29480310252325    1.69931161552780
H          -2.57508336628738    0.20264315997490    0.95332878934426
H          -3.55913738631616   -0.94689702161897    1.29122845624811
O           2.58293586626948   -0.79699568764570   -0.98013467678891
H           1.88337630337707   -1.38998857601869   -0.67251471642501
H           2.21328953797157    0.08574976838764   -0.78657906505684
O           1.63173832505919   -0.47612209396772   -3.42316428076379
H           0.18726323550458   -0.17197035038392   -2.79271692276520
H           2.00047961196526    0.34858604353503   -3.74711455059642
H           2.14288871682890   -0.70650721391619   -2.60659697352144
N          -0.41071864333393   -0.62930487955097    2.24007429164209
H          -0.18737927201100   -0.96045271622564    1.24242145608986
H          -0.08454972869897    0.38107372987695    2.25510259628447
H          -1.45673186130246   -0.62669755176261    2.29890098702643
H           0.02946784346766   -1.19607495085277    2.95627206904565
