    23
        -45.37104268  Gyration_radius:  2.47588229142 Dipole_moment: 6.812
 S          -0.70545648421248    0.10699169845492   -0.84110824344105
O          -0.25224253846618    1.45759630561611   -0.17961438631564
O          -1.30901167589033    0.39643776209993   -2.10937056049154
O           0.51654554087742   -0.71245733003064   -0.96900011565506
O          -1.60011028371405   -0.50660085973962    0.14667858326572
O          -1.04365452876416    0.82391459378333    2.40313449297439
H          -0.63463530228780    1.61790592652820    2.04719698743538
H          -1.40088194138121    0.37030509261384    1.61184054597200
O           1.68400971336438    0.46813216555999   -3.06115676694281
H           1.35238350249576   -0.01268617323546   -2.27650960686920
H           1.23709319807813    0.07099326367047   -3.81181261506923
O           0.68113608179268   -0.92816513432036    3.34381732605508
H           0.08572790791547   -0.18061808833914    3.07065842605336
H           0.38684732520817   -1.19602320579750    4.21573213170045
O           0.18873635254021    2.61060040781251   -2.42839569479482
H          -0.60028230358027    2.12150539413306   -2.70785006326819
H          -0.00619323195171    2.04873627086862   -0.95118289529253
H           0.93594663310140    2.05424376918917   -2.73536900577798
N           0.11375867840630   -2.17124921610388    1.07300721721437
H           0.46666596656764   -1.81381598295757    2.00071875187413
H           0.61557571546942   -1.70065240688788    0.25975134849333
H           0.12130800413492   -3.18298264285785    1.00822966913520
H          -0.83326632969602   -1.74211163005748    0.89060446374771
