    23
        -45.37722779  Gyration_radius:  2.39406263391 Dipole_moment: 5.953
 S           0.30093227132301    0.57735506546174   -0.88959869475560
O          -1.13423970312838    0.43390374896096   -0.66110882640277
O           1.02895736743904    0.63100008762319    0.38209707501950
O           0.82366669743217   -0.49227691913470   -1.73291386341997
O           0.54393859328819    1.91080067130548   -1.63452278679158
O           1.63331519107237   -1.61091328181378    1.59295892650833
H           1.37746268014972   -0.72597602152587    1.23173656721408
H           2.58368678496944   -1.57490716879533    1.71410955199870
O          -2.14835791731444   -1.92097023004591   -0.16987560240857
H          -1.82758457988095   -0.98928404504121   -0.27099620953275
H          -2.85848090355045   -2.01860866190571   -0.80660135217043
O           0.28446803636720    2.75605339807209    1.77691974250187
H           0.56729861032470    1.91751979689738    1.35061115827604
H           1.07569267504907    3.29035303479663    1.86359276476578
O          -1.32445488258169    3.09621916879525   -0.34305791198343
H          -0.14119221490137    2.52934764896280   -1.23963647103328
H          -1.72032843954677    2.21099543733538   -0.34201534977306
H          -0.88157071923776    3.17710439937591    0.52817206577147
N           0.36798922193697   -2.68385810068686   -0.47418807674940
H          -0.66760625330078   -2.60653128005033   -0.30602942857336
H           0.87795227505728   -2.48933498395430    0.42385270899748
H           0.63017721740856   -3.57245570588445   -0.88573253824843
H           0.60827800162675   -1.84553605874977   -1.10777344921043
