    23
        -45.37876339  Gyration_radius:  2.39227227554 Dipole_moment: 5.191
 S           0.67069592582841   -0.50504601631598    0.38987207619603
O           0.89739620570681   -1.19497630112300   -0.86304580965684
O           1.35540499834375   -1.30779610712021    1.51974057054476
O           1.24926530886317    0.84010745105937    0.36319420498907
O          -0.76635248758832   -0.42713530608397    0.70857784084871
O           0.56382229053597    1.41658442024295   -2.09647783104238
H           1.12565136080807    0.79327166477021   -2.56438841695833
H           0.87394884181321    1.35921332984951   -1.16101698097210
O           0.94984189345767    2.09108392586313    2.67433548364844
H           1.82958060121659    2.34480149494626    2.95844440854668
H           1.05394996979194    1.72240896496358    1.76945331209372
O          -0.92388771579681   -2.25197379726928   -2.42753700506913
H          -0.20963145978946   -2.01845310756920   -1.78774710284409
H          -0.48250779817754   -2.62275678929707   -3.19318716242735
O          -0.12436960931771   -0.27308592501244    3.34087408880756
H           0.88870687831007   -1.00874806886378    2.35787990671662
H           0.21181686932388    0.64908708152194    3.33153795973335
H          -0.80195934094869   -0.29883575039731    2.64985416313085
N          -1.71176395123425    0.15448757904705   -1.61469223201506
H          -1.46990540060951   -0.07234205216075   -0.59188271435012
H          -1.64942964963976   -0.75826208091628   -2.11782158847689
H          -2.61872712263123    0.59772894104994   -1.70945683855297
H          -0.91154661828737    0.77063644881346   -1.93651032290018
