    23
        -45.36948961  Gyration_radius:  2.37974116654 Dipole_moment: 6.304
 S           0.84619248342193    0.16640626890439    0.46201635189587
O           0.72416818503107   -0.03096039526122    1.97584922016725
O          -0.33386388038866    0.96928531507873    0.02586400029534
O           2.05664628469976    0.88344708194282    0.15932667061996
O           0.80430324077629   -1.14391241789781   -0.19694897409241
O           2.14876740530873   -0.41650044190314   -2.29478434451383
H           2.97857980463752   -0.19243742211815   -1.86165281598784
H           1.62805015223061   -0.85988823614908   -1.57709229836964
O          -1.28828588562317   -2.68790464926229    0.23941517729930
H          -0.52848911141979   -2.12098165199076   -0.02093545177179
H          -0.93266575247595   -3.57204120697091    0.34445868649401
O          -2.55281182941973    1.12953959047865    1.51099830365859
H          -1.80298306011018    1.10176320864699    0.88218103570354
H          -2.36486873949209    1.84772383630970    2.11778556275884
O          -1.48728221175759   -1.16637776412828    2.42899737193309
H          -0.15566888506510   -0.52674409865849    2.20690822650085
H          -2.08901139198652   -0.42867074701876    2.19589391746070
H          -1.56260775929673   -1.81050800405295    1.68981544291722
N           0.77378565653062    1.80172594392135   -2.09516567739672
H           1.35066820992857    0.91687178795258   -2.31483891659109
H           1.41034721137586    2.53829765464866   -1.80252945152598
H           0.18651642853506    2.09372005021793   -2.87021329848029
H           0.19051344455600    1.50814628730715   -1.20534873897547
