    23
        -45.36785508  Gyration_radius:  2.34298842561 Dipole_moment: 6.498
 S          -0.84056488869820    0.13514107736295    0.45050389629375
O          -1.43951674789955   -1.19909109838695    0.94702391378919
O           0.26003030887558    0.50269472934175    1.36379129965120
O          -0.27017198152366   -0.09216359716171   -0.89012445599129
O          -1.88002802648231    1.13187250322382    0.41649887584294
O          -0.98580395920211    3.49452599060168   -0.26137672603928
H          -1.45826520265404    2.64368445958754   -0.07503523195634
H          -1.23225983877499    4.08658689172737    0.45192305382074
O          -1.06513666422217   -2.66697271109252   -1.58798717499453
H          -1.70232046145078   -2.88291576426872   -0.90379460793292
H          -0.93989643720039   -1.70805802643934   -1.52855752635543
O           1.56704808273085   -2.04832731962331   -0.66587068085840
H           1.10266011127487   -2.75477932341575   -1.13227213325895
H           0.99808485773665   -1.26756974576387   -0.80996286733704
O           0.74253154151930   -2.13842278058160    1.85746680040486
H           0.96251622498412   -1.23791544010383    2.13047718393048
H          -0.66348113390927   -1.70894926679367    1.36136663570190
H           1.20285712404829   -2.26830811764040    0.99255782169356
N           1.18049295571935    2.02999644133775   -0.44060843081527
H           0.82361295956477    1.31228888068280   -1.10290632772167
H           2.13681565293843    2.31588476554308   -0.62354984282207
H           0.47707635927954    2.82200729686500   -0.43621185710130
H           1.02371918333897    1.49879014472089    0.48664839167379
