    23
        -45.36785510  Gyration_radius:  2.34300582825 Dipole_moment: 6.490
 S          -0.03683460082191    0.85999262558536    0.43500655859138
O          -0.52554800700854    1.35792466648742    1.69529526562191
O           1.33614009978349    0.32627314115608    0.53678521479844
O          -0.90709161715766   -0.20568822394317   -0.09552137513727
O          -0.01889101494164    2.01545691554711   -0.58968852173620
O           0.08471404591997   -0.94475412834540   -2.48805979463497
H          -0.60460825991364   -0.58693184830838   -3.06165484465052
H          -0.27320694317735   -0.80897612331531   -1.58950309876279
O          -2.10036446532014    0.89075179286511   -2.35858632077726
H          -1.85941648522459    1.81742895719358   -2.29555908043723
H          -1.91497909906086    0.51733648342290   -1.48394302667073
O          -0.46978341622568   -0.45331614793134    3.58181383872823
H           0.05804468925296   -0.08173629924480    4.29133214779808
H          -0.61640949238893    0.28989776377652    2.94312935353861
O           1.80950831697272    1.02924434682530   -2.05856412310607
H           1.29758266796274    0.26157626012788   -2.41264619394030
H           0.69535193770039    1.76625911077635   -1.26898267633494
H           2.22392910703652    0.70695955603475   -1.24727153747291
N           0.37886212682677   -1.81301551251335    1.50771906017363
H           0.08089513332076   -1.50004486128556    2.47475750747134
H           0.73362499177175   -2.76261746651274    1.46216318420518
H          -0.42376861084219   -1.63426055213838    0.87125526729090
H           1.05224888491876   -1.04776046598872    1.15072318505828
