    23
        -45.36498098  Gyration_radius:  2.3206575503 Dipole_moment: 6.809
 S           0.43491346887928   -1.05443023452870   -0.25473683056929
O          -0.35080572647748   -0.25769642254828   -1.17173772817110
O          -0.31776295592919   -1.88224439048166    0.63994376840389
O           1.41885239174330   -1.90667433237592   -1.06064931638025
O           1.32859114625012   -0.10453371568753    0.55289057366531
O          -2.70887172114784   -0.59632735961953    0.45842608881767
H          -2.55023605753909   -0.24361859979805   -0.42176811531569
H          -2.00829451549555   -1.25390842885608    0.59266537779969
O          -1.67730364599639    1.27930858987300    2.12254625439877
H          -2.25391729214535    0.64565544910501    1.64905053769216
H          -1.29418181804277    1.84212487681713    1.42335594500130
O          -0.27936279534328    2.20975621911371   -0.03626861650571
H           0.61907111344548    2.19001066247997    0.30269825705530
H          -0.38679358426683    1.38572505878386   -0.54231915264881
O           0.30944754409790   -0.20986068264473    2.79948995044579
H          -0.47467084226631    0.42292543108742    2.67048380749017
H          -0.05887974749415   -1.09861317833572    2.73653826269506
H           0.98453716696854   -0.11599265314322    1.57319467572948
N           1.91101155521554   -0.18911008514283   -2.89586852304311
H           0.99357347287693    0.22047145533114   -2.74949446274730
H           2.62115180127379    0.49982419840134   -2.68700725671846
H           1.73813335180681   -1.30891799629193   -1.83943736721864
H           2.00179770952446   -0.47387383155416   -3.86199610988923
