    23
        -45.36498103  Gyration_radius:  2.32071762842 Dipole_moment: 6.810
 S           1.08391273834699    0.14272723535879    0.41217291740773
O           1.30949109448159    1.52518544605150    0.11189428167982
O           0.74952376070335   -0.69190570303976   -0.72118215041761
O           2.30655310121861   -0.45057782013007    1.11724105972466
O          -0.04593982499517    0.01837921801972    1.44239845535036
O          -2.28952577134050    1.69408338179843   -0.91726559535740
H          -1.56509668384885    1.82234804259653   -1.56294649636306
H          -2.41177926124750    0.72730181046262   -0.86463302768996
O           0.04455743022180    1.62261342482205   -2.29524475595076
H           0.62193542096060    1.79319815754552   -1.53450621365212
H           0.17148002714137    0.69118618534825   -2.49683027215231
O          -1.94121525978692   -0.98321149914303   -0.47938887564544
H          -0.99016410184346   -0.95794205152551   -0.68311308445459
H          -1.99976412225269   -1.02310040063728    0.47844522039839
O          -1.12124263072394    2.23736527565376    1.31066804692120
H          -1.68754129161219    2.11262561670940    0.47669832502999
H          -0.55455627274126    0.96616510186616    1.48948412000465
H          -0.34951150541341    2.74221583767463    1.02950493918198
N           1.72834965517465   -2.91919477670155    0.75327737710412
H           1.21281567209141   -2.66836292467983   -0.08468251859011
H           2.44670409739319   -3.59091836576934    0.51760524952430
H           2.18619944999699   -1.47509366663118    1.07756881014009
H           1.09481427807032   -3.33508750564446    1.42283417780984
