    23
        -45.36528548  Gyration_radius:  2.38252151497 Dipole_moment: 3.483
 S           0.90735346860248   -0.24096875955664    0.62355879837903
O           0.08302672338710    0.98627744293512    0.72421953031957
O           1.39125044053865   -0.42087051113110   -0.73372362345019
O           2.14804972194157    0.00001670666652    1.52551347838257
O           0.17047424787049   -1.38661382570256    1.12247808556462
O          -2.41193709428283   -0.40174199917180   -1.74075442631019
H          -3.10607687332715   -0.54970467421236   -1.09610776846385
H          -1.76472358819623   -1.15524858593692   -1.62667520498173
O           1.10426065369195    1.29884461796646   -2.65724474879652
H           1.80850135300590    1.94569513660742   -2.58501072265311
H           1.31895754883429    0.58261705757417   -2.00662751044207
O          -0.64769206972111   -2.25513354035573   -1.23258866006084
H          -0.42555016099639   -2.08879190703432   -0.29141963864142
H           0.16706437754628   -2.04340260092723   -1.69911581233688
O          -1.03898503773730    1.69577532429174   -1.33758538844359
H          -0.57003084501464    1.43347265924477   -0.38675092804666
H          -0.25810315461051    1.64399178731332   -1.99350052338377
H          -1.65077958870249    0.89367109202538   -1.55258888458457
N           0.50934919765003    0.03121735916118    3.54852066252488
H           0.49843903283915   -0.22856018801319    4.52657096944891
H           1.74096418646901    0.07049679361116    2.43342927888169
H           0.04979874140305   -0.69446948601424    3.00443566933395
H          -0.02361129120148    0.88343010064879    3.43096732776296
