    23
        -45.37949585  Gyration_radius:  2.38817618606 Dipole_moment: 4.350
 S           0.08966012141973   -0.41838319758954   -0.83897711408077
O          -0.39137398890143   -1.35774903511141   -1.96968005598785
O          -0.27996480892824    0.95388284020267   -1.18653908057842
O          -0.60312828752796   -0.83045338466772    0.39735725189893
O           1.52418928295254   -0.56186444054100   -0.70861394524843
O           1.48669839975399    2.14956576041728    0.33945168071900
H           2.30154392319868    1.82891756399333   -0.05754296043340
H           0.78155342673316    1.85868771789697   -0.28528636622801
O          -2.88344253540466    1.25638955572349   -1.53462591149903
H          -1.91440211272462    1.24675319681603   -1.37153024635193
H          -2.99959115708228    1.63043054007754   -2.40966843365585
O           2.82108792438374   -1.32877896019399    1.44390613431820
H           2.46289502378912   -1.08750382088083    0.55643728635700
H           2.79775951006620   -2.28625013230320    1.48210165043324
O          -2.80207888999897   -1.38541121545301   -1.09258585529978
H          -1.37300779616788   -1.47432454812665   -1.79360132399366
H          -2.36398060617367   -1.34512573121380   -0.23011041365018
H          -3.07536102851489   -0.46160611916314   -1.28072475145164
N           0.87938934329884    0.33330849872118    2.15486992806032
H           0.15036902199839   -0.16707982217632    1.54766314098905
H           0.53253643052564    0.56914090080581    3.07787939512485
H           1.70583345553659   -0.31003224081354    2.17433392489770
H           1.15281536776491    1.18748609357505    1.58548604566000
