    23
        -45.37592468  Gyration_radius:  2.46843094397 Dipole_moment: 4.018
 S           1.14337603578250    0.05237784541617    0.61484072897827
O           0.30457172840326    0.96764833719897   -0.16559412442823
O           0.33341360849881   -1.00127517694533    1.21041215760666
O           2.26915785486323   -0.44731393862360   -0.14671529170814
O           1.69787130038265    0.88647489716291    1.82780413505151
O          -2.02470181072133    1.71852026407328    0.74088194634377
H          -1.13841140895816    1.55438186502364    0.33079467295991
H          -1.85030884200951    2.23177389170286    1.53144623667084
O           0.31804657486236   -0.82147994873186   -2.11293157072991
H           0.25999247451671   -0.01634021016288   -1.56349215993940
H           1.13028408960289   -1.23756569763226   -1.80668894809244
O          -2.17116242054410   -1.66681050762837   -1.87279115780841
H          -1.20860627393830   -1.48881553722785   -2.01746391720047
H          -2.62933661168980   -1.11445467288708   -2.50918530561855
O           3.81996011131176    1.57839248276586    0.40602303168977
H           4.66844040342105    1.26219252643772    0.72443246673014
H           3.39365248354073    0.81597077673625   -0.04163341023039
H           2.47847363542760    1.35645598443216    1.46740338349699
N          -2.19238158614782   -0.93833207758148    0.68700364838730
H          -1.15320019125718   -1.04395004338140    0.94140462287351
H          -2.29548424412510   -1.26060025607565   -0.31334050332915
H          -2.77713724222139   -1.47821674189239    1.31473049112984
H          -2.37650963900066    0.09096593783160    0.75265887715843
