    23
        -45.37592471  Gyration_radius:  2.46802004414 Dipole_moment: 4.012
 S           0.74509995949150    1.04569498199827    0.20890247209245
O          -0.49889838288401    1.20023471020732    0.94999490437309
O           0.94699476588016   -0.35619917943106   -0.17116001958970
O           0.85813664593226    1.94397139457469   -0.92135063282338
O           1.88625585693055    1.39446371384895    1.23368116534487
O          -2.79369138159364   -1.33337177825431   -1.18659983238130
H          -2.13290798701587   -0.74121025925466   -1.62474931268646
H          -2.66679236312405   -2.19521166671801   -1.58801636757010
O           0.39324271351570   -2.27232933029195    1.51156389762366
H           1.00606953518414   -2.17141867006389    2.24170741401486
H           0.69701889276785   -1.63156068098681    0.82031829789256
O          -0.75218084575976    0.02679630356776   -2.16075751116924
H          -0.61266932150827    0.97918861185556   -2.17488319510465
H          -0.05442392100052   -0.29079575557961   -1.55594808318331
O           3.45280729893049    2.17480664189099   -0.75177452645244
H           3.69992731461201    3.10224419660441   -0.76394931083509
H           2.66048596784312    1.61352731880782    0.67461231876182
H           2.53335069605289    2.13172492578256   -1.09267419554453
N          -1.90089090665295   -0.93946159281690    1.28992229094771
H          -2.34166779661514   -1.15771109872640    0.35556067840710
H          -1.14392131216850   -1.63294637268882    1.49955617423107
H          -1.38598673004545   -0.00241005076220    1.17953741077384
H          -2.59535869878279   -0.88802636353020    2.02650595287498
