    23
        -45.38058006  Gyration_radius:  2.27434738709 Dipole_moment: 2.296
 S          -0.02260088761856    0.47259825539368   -1.41535101441023
O           0.58055873624314   -0.73533837227070   -0.83566214383471
O           1.06386797347553    1.13703763771578   -2.32658793293796
O          -1.16593781830036    0.17829114589897   -2.23497300285900
O          -0.33026964247278    1.42983319236520   -0.34468123742079
O           0.29124982110540   -1.17125054527705    1.81860835160186
H           0.80551009301258   -0.36291974700341    2.04403052079371
H           0.46222022963398   -1.28746539431691    0.86501953855677
O           1.43582831584664    1.24100831628141    1.69161919013460
H           0.79643317704095    1.48717626263126    0.99584832891276
H           2.27374417971409    1.13260048826493    1.22775291364259
O          -2.73004450174320   -1.43826160581949   -0.90018827382098
H          -2.25209654130400   -0.83752823731771   -1.52180242364063
H          -2.30549031140997   -2.29342539104505   -0.99518249321155
O           2.92399704154181    0.32732983846670   -0.54864465436699
H           3.64989247818984   -0.20976898982402   -0.87153782455752
H           1.87561098614395    1.13439102690225   -1.79256073340771
H           2.11906663509587   -0.24366604770549   -0.56181465691650
N          -1.92843167881295    0.01533618284779    1.16834289029642
H          -1.42155390946328    0.74910073984213    0.60048101427744
H          -2.41302981968770   -0.60753663676859    0.46951221698062
H          -1.13614666281809   -0.54265323863175    1.63198809792923
H          -2.57237790340918    0.42511108938009    1.83578331825690
