    23
        -45.37367556  Gyration_radius:  2.49354720096 Dipole_moment: 4.207
 S          -1.03686590739558   -0.39957341239306    0.76864624286596
O          -2.27090638643847    0.28304112067399    1.45812619933455
O           0.11277138910084   -0.08906020482737    1.58728144219017
O          -1.31297425641307   -1.81682851240686    0.64659556105821
O          -0.90813209200875    0.23666374213844   -0.56008287194360
O           1.50111034387269    2.08424796632606    1.85520736791213
H           2.31054943659007    1.79839517004122    2.28347407248474
H           0.89143715861396    1.30527615342893    1.90574798552079
O           0.68106632025622   -1.76444011688630   -1.31224252348210
H           0.44863473937812   -2.37983002403553   -0.61046673144494
H           0.00672014969635   -1.06446367145795   -1.22634088726217
O           2.79780340768034   -0.19793906919538   -1.59374092782013
H           2.10965089664111   -0.88396105084602   -1.41360796566025
H           3.07998473873638   -0.34744791302554   -2.49769843130974
O          -3.87198282964179   -1.46525280309943    0.26681351792962
H          -4.36797417112860   -2.04070217020437    0.85337632738334
H          -3.04576961862167   -0.13966372263577    1.03590364315099
H          -2.95518726968472   -1.81604984500750    0.25030406425230
N           1.17831473887759    1.76712609075602   -0.75746865318456
H           0.26797140770578    1.20174529274990   -0.69657435719022
H           1.90966816343780    1.11275800693137   -1.13066086522151
H           1.05830131093228    2.58208290089484   -1.34843428245162
H           1.41580834979527    2.03387606209456    0.23584207288532
