    23
        -45.37367565  Gyration_radius:  2.49351256587 Dipole_moment: 4.206
 S           1.27291077374953    0.36134946134553    0.26898343111770
O           0.55512147326127    1.44774046664822   -0.35791034754194
O           1.51926733523200    0.55150024226010    1.68415322104093
O           0.58596925460096   -0.92305684109257    0.01331707386756
O           2.65891599951294    0.26434469528044   -0.46159922498680
O          -0.66045023070024    1.61609051547981   -2.64185676116894
H          -0.06203116239665    1.63775757767034   -1.85289518403750
H          -1.21154240676035    2.39712816958865   -2.56080469844739
O          -3.20019589466665   -0.19377298202621    0.36590491713069
H          -2.47910226236970   -0.11648629897275    1.03709129627926
H          -3.82604360045864   -0.82123875131551    0.73165361363606
O          -1.11057800258669   -0.35144254009452    1.98595498870064
H          -0.58980387108032    0.34098016510781    2.40367333519853
H          -0.48273603997520   -0.75281262535220    1.35606355224128
O           3.68131806636553   -0.91172246547855    1.68565445821472
H           3.20373952034273   -0.29288680499588    0.13002328471937
H           4.39302876370158   -0.43627541769481    2.11998046423768
H           2.85088464805786   -0.45514760479197    1.94221573580413
N          -1.43922675732682   -0.69106920758587   -1.59259048913517
H          -1.25149471867021    0.19032235910531   -2.14235862390328
H          -1.59939956191547   -1.48725848307805   -2.19938595978486
H          -0.56906049518563   -0.84388885288010   -0.98297524691176
H          -2.23949081073423   -0.53015478712067   -0.93229283626569
