    23
        -45.37471192  Gyration_radius:  2.32483636844 Dipole_moment: 5.639
 S          -0.01338181927018    0.51204459895943    1.10868285140752
O           1.14937925617454    1.38917535162978    1.10947520884304
O           0.23849544832633   -0.65231959214405    0.24030449777180
O          -0.52144469418301    0.14651962199672    2.39853187164281
O          -1.13926492027433    1.33481801392339    0.34944813863957
O          -1.94226024497348   -2.06182810453645    0.73205219850708
H          -1.75670727983561   -2.55929384254366    1.53111144179039
H          -1.10843344153830   -1.59145150673493    0.51845681012459
O          -0.35758901113627    0.76582393399570   -2.16628921646513
H          -0.77210239825716    1.12529333662126   -1.35898809656197
H          -0.44634244987109   -0.18777821764602   -2.07394395973408
O           2.56817867511118   -1.39456006029695   -0.75857126295180
H           2.47352835637342   -2.25317915795218   -1.17316425460143
H           1.72915518378502   -1.22566412056740   -0.27294410574075
O          -3.06617574919826    0.22322713735546    1.60115913211329
H          -2.95882612939214   -0.66877624589274    1.20842607851488
H          -2.45176452146813    0.22692935742028    2.35236241316263
H          -2.00419335343381    1.01652089193338    0.75623493138929
N           2.10530399255508    1.19132077179633   -1.24937908719249
H           2.72071981337532    1.92494276227997   -1.58205811680209
H           1.77959731115532    1.36182652665322   -0.22448926317173
H           1.21260111062346    1.11860213038734   -1.80350727622284
H           2.56152686532954    0.25780641346617   -1.24291092449810
