    23
        -45.37874211  Gyration_radius:  2.34133868641 Dipole_moment: 4.655
 S           1.02099654384920    0.44921443550320   -0.11021278497901
O           1.21221423343872    0.68475331393521   -1.53387451269090
O           0.32664644870013   -0.81996936515259    0.12983091297306
O           2.42394710950040    0.35602880514531    0.53689129751329
O           0.29068105436369    1.54665793341282    0.52449553068402
O          -0.60305213071416   -2.35778319012998   -1.78548552041822
H           0.13354590335511   -2.88110974845911   -2.10554440476998
H          -0.26524639020690   -1.87887895905129   -0.99014372110991
O          -2.13120016814437    0.91288486920755   -0.24849706897053
H          -2.29456197440749    0.14501791659430    0.30508519024955
H          -1.27920707520541    1.28634602899335    0.08141766739224
O           0.11516895254482    1.22600737747869    3.14323273966909
H           0.11837385672999    1.41649868315319    2.17905392724090
H           0.49615124753986    1.99713773344469    3.56629136942154
O           1.53060205799842   -0.97546076523398    2.54270679509490
H           2.27197748666150   -0.15274133525630    1.38774570809906
H           1.03246122619584   -0.26990577971058    3.00632743303704
H           0.91734782030357   -1.31799120240658    1.87496221801681
N          -1.08738308281740    0.13298482562068   -2.54382478957330
H          -0.09528748310578    0.44549059564527   -2.27666797598549
H          -1.05939921787258   -0.91364619846543   -2.49975162651270
H          -1.68697149327238    0.47681463338846   -1.74098561320490
H          -1.38780492544196    0.49164940234357   -3.44305278118375
