    23
        -45.37874207  Gyration_radius:  2.34114764828 Dipole_moment: 4.650
 S          -0.14421014268336    0.31233827752676   -1.06852410229564
O           1.17924290345979    0.31978243666510   -1.67454243485442
O          -0.10350276501383    0.83168647289212    0.30235571732152
O          -1.04422357508428    1.25058859989514   -1.90840557177346
O          -0.73449588892411   -1.02640305445355   -1.07911597174224
O           0.56935862043229   -2.05623692401005    0.94650805534708
H           0.03830904356266   -1.81190767048333    0.15119764343518
H           0.14291257489569   -1.60105766279606    1.67707959700668
O           2.10953464071231    1.50576453633657    1.54533493168745
H           2.33041981938624    2.39385259129912    1.26022007213407
H           1.21678074104747    1.31749942160414    1.16646184219656
O          -3.21330181046160   -1.00957150110171   -0.15927291362840
H          -2.29623738614530   -1.11014387933657   -0.49818902078906
H          -3.78615733608031   -1.38013932432223   -0.83255839572414
O          -2.67503677360748    1.61330340236077    0.04175502212547
H          -1.86524884401893    1.51510629872721    0.56513038467511
H          -1.78723340071612    1.50645566223047   -1.28519564991136
H          -3.10318245411273    0.73192838815934    0.07011524429070
N           2.67914916969547   -0.67865309735181    0.16033904962855
H           2.18827463861639   -0.29652225594538   -0.71502237459867
H           3.57714464866467   -1.10313763690980   -0.04192243957034
H           2.74144918339720    0.13995213022175    0.81165877414137
H           1.98025437297111   -1.36448521120399    0.56459256089765
