    23
        -45.37874185  Gyration_radius:  2.34081007732 Dipole_moment: 4.654
 S           0.08215659168914    0.26606325025706   -1.08813310847913
O           1.47381401229395    0.05222151274659   -1.45732087060901
O          -0.11865213884216    1.58323752618979   -0.48342288140961
O          -0.75889557292713    0.18988321913678   -2.38526760527840
O          -0.39286676361484   -0.78117661036987   -0.17816732622642
O          -2.67190888731099    2.05502475777436    0.01489369028758
H          -1.70340717116527    1.95708185930399   -0.12089122882239
H          -2.92064452421991    2.86679778804880   -0.43006925733705
O           1.14369470487805   -2.67756736121321    0.79185867271483
H           1.20096969832167   -3.36089830992055    0.12209825343954
H           0.46918184972353   -2.03550371864770    0.46211267500516
O           0.78608834410721    1.06196248390085    1.91908985553381
H           0.45337570091140    1.40529750157939    1.05553757674892
H           0.07362249933866    0.51317424746073    2.25666892965072
O          -2.90288429084567   -0.38065395530622   -1.09216417304027
H          -1.68545338796732   -0.02709305882076   -2.06856689404858
H          -2.27345900252486   -0.82361750584006   -0.50321713392468
H          -3.08112353538965    0.48457175564047   -0.66743451478478
N           2.61122364168941   -0.47314521444486    0.78867149276471
H           2.28127131113094   -1.45701335267238    0.93454225061589
H           2.02522972048357    0.16102952420119    1.40248132247645
H           3.60720121312698   -0.35514313983571    0.93564334317332
H           2.30146595713866   -0.22453320917358   -0.20894306846305
