    23
        -45.37202095  Gyration_radius:  2.35747707042 Dipole_moment: 5.557
 S           0.26696760839136   -0.99092449957089    0.35981667495189
O           0.55207829891247    0.08347138521732   -0.75904300115877
O          -0.78250087257553   -1.85751365865066   -0.11034384453722
O           1.55727337387158   -1.62927188538835    0.57338900274252
O          -0.13203972330105   -0.20944694888402    1.54619498293538
O          -2.67275431324122    0.12872246613381    0.81283101015059
H          -1.79426407741803    0.04731182130388    1.23205473015229
H          -2.91660812113487   -0.77094652400453    0.57744921890656
O           2.35461697121789    2.02410946494674   -0.20010284253736
H           1.89384731890485    2.85539872170775   -0.32872445198375
H           1.78545108142153    1.33463186035661   -0.59611588343635
O          -2.05640679580432   -1.52488190867669   -2.42884766332080
H          -1.63861683262293   -1.76838989685613   -1.57653285018285
H          -1.55187291705721   -1.97404863496367   -3.10828190057940
O          -1.68034084498041    0.96863675373748   -1.50440223669454
H          -1.95995841983170    0.21320257860528   -2.06130503737817
H          -2.18866199881196    0.85468298906884   -0.66578656280238
H          -0.34871835914726    0.48480851893219   -1.08964039628211
N           2.31014989841319    0.37590171932814    1.90534344669190
H           2.54486556772691    1.15100362363734    1.24817335413204
H           1.26015067805565    0.37885879432053    2.06616509827559
H           2.32833508288170   -0.55114184965099    1.35654586498301
H           2.86900739612690    0.37582510935167    2.75116326697037
