    23
        -45.37796987  Gyration_radius:  2.33880885349 Dipole_moment: 4.750
 S          -0.21584999111229   -1.15625725061599   -0.53334109004101
O           0.20783931479865   -1.35333088089969    0.85288132165789
O          -0.56673938632969   -2.55705398196910   -1.13365818248742
O          -1.43429229296871   -0.36687014196284   -0.60141020087097
O           0.85746730730360   -0.57944071011086   -1.33891593679276
O          -1.26027875123062    2.19415135721703   -1.06217551557174
H          -1.27764202681171    1.20513954432407   -1.02440608954911
H          -2.11454457283275    2.45693584564295   -1.40842766701230
O           1.89775058144047    0.66438439613097    0.76213849312504
H           1.79992383829562    0.50965222143947   -0.19457035668587
H           1.52774509961526   -0.16550130385169    1.12095445286505
O          -1.61073110834146    0.05008373912730    2.09222107853188
H          -2.22974247462348   -0.02107963253996    1.35519683249495
H          -0.91125809527831   -0.59615020736457    1.83363002921059
O           1.98141602523076   -2.89670820944326   -1.78573585900432
H           1.80805869707079   -1.93915164637529   -1.66228351904853
H           0.30263138921596   -2.96639547507698   -1.31416289299902
H           2.16514692102390   -3.02103147630274   -2.71944333909130
N          -0.18526370197903    2.14349417559682    1.37139008017326
H           0.75107948652548    1.66792472326586    1.16494699888521
H          -0.07754283236172    2.94978089148299    1.97607409698084
H          -0.61108952628630    2.39107612693928    0.44673062473137
H          -0.80408388036599    1.38634788534661    1.80236663049759
