    23
        -45.36855730  Gyration_radius:  2.27419802568 Dipole_moment: 6.722
 S          -0.01423906327505    0.89403388829523    0.58777793373970
O          -1.24532348731052    1.73926548625823    0.17774263891534
O          -0.33181769555484   -0.51988826624553    0.35645415673223
O           1.11750391583162    1.29934728614465   -0.23307376348215
O           0.21477358513134    1.09922265390110    2.01689448142254
O          -2.97605178756560   -0.60229617264998   -0.41621233175312
H          -2.10420412056903   -0.66470861449533    0.00531134270001
H          -3.26662409705875    0.29941160121304   -0.26366189203918
O           2.53388931068012   -0.86340362775857    0.06270561264350
H           2.14521464011915   -1.43604942425966   -0.60435986163447
H           2.13714035304599    0.02911409107771   -0.10759101722621
O          -0.77585037104511   -0.77032333344435   -2.27978442495710
H          -0.48996693416370   -0.78123964017225   -1.34565116631330
H          -1.71839953255106   -0.97313622284546   -2.23365194140822
O          -0.58794976531034    1.88961389231360   -2.27792888486980
H          -0.68775086633363    0.93474929763749   -2.50912780592532
H          -1.12758769610261    1.91090405275275   -0.81702854388433
H           0.33083769780875    1.98234723885247   -1.99270579155215
N           1.38555280345678   -1.12306539728482    2.40958468470680
H           0.65914811423839   -1.83309943577352    2.35934410999546
H           1.94183540329834   -1.12624727540635    1.48999671703753
H           0.88350733375005   -0.14367219726809    2.38792108844249
H           1.97636225943833   -1.24087987079019    3.22704464870758
