    23
        -45.36847195  Gyration_radius:  2.30648666733 Dipole_moment: 2.930
 S           0.03404136461082    0.48863286405420   -0.89871081024705
O          -0.31728875818490    1.51921413451915    0.07214299584501
O          -0.97268240027756   -0.55943953045081   -0.96833941069714
O           0.14268080632368    1.17949205972427   -2.27963780858340
O           1.35464194975349   -0.08448739711305   -0.58908879289713
O          -1.10225684777058   -1.44475870524745    1.49861728366399
H          -1.13032650531706   -1.30512142761019    0.52160097673632
H          -1.63781883888189   -0.69233523108431    1.84361190873963
O           1.12650619102901    1.68457751333670    2.27708758259864
H           1.91167142840790    2.20556579529924    2.09903450597755
H           0.54636731489588    1.77766737682025    1.48603529882981
O          -2.35243517964284    0.88272392029949    1.71120625791935
H          -1.66682175773923    1.24618179530741    1.11595830092234
H          -3.17368030118676    0.91030619994712    1.21737079215185
O           1.28341335761210   -0.81599954602809    1.77987132181553
H           1.42985487282637   -0.59685023031260    0.76040994616189
H           1.27182790685994    0.11547552506740    2.18975889548169
H           0.25848288369239   -1.16741935742108    1.78199653856113
N           0.63589906797849   -1.17987148488555   -3.23901834350487
H          -0.10589775365680   -1.48419034041485   -2.61559290873658
H           0.58271615164647   -1.70307161657181   -4.10377420243961
H           0.36485285457189    0.40928689078253   -2.87718853442488
H           1.51625216246339   -1.38557920803591   -2.78335180385791
