    23
        -45.37883191  Gyration_radius:  2.29233287477 Dipole_moment: 2.044
 S           0.18900646485349   -0.17044405963988   -1.34500288863243
O           0.61858224232652   -1.09002858775625   -2.53632207087575
O           1.40016457693431    0.46129934296569   -0.82298217244470
O          -0.75771540727740    0.79918664789379   -1.86000861166976
O          -0.42668017637928   -1.02988946616601   -0.33588397692701
O           0.70188139504755    1.61579839959906    1.46943836032647
H           0.72494531435909    0.77269305941396    1.96902637092358
H           1.12484566173894    1.37458849968282    0.61994317418300
O          -2.80618070338478   -0.51498150171175    0.70609397976888
H          -3.46350411111172   -0.85071027197580    0.09447663056711
H          -1.94026419268658   -0.84829430967112    0.37865317122602
O           0.82163196153783   -1.00936594292042    2.02850751126037
H           0.32402886458134   -1.12864196454117    1.19474580288102
H           1.65693471331322   -1.46102921373996    1.89455170764966
O           2.67999558383410   -1.79922691177209   -0.97152335112304
H           3.55710741718590   -1.69680931284211   -1.34741844060077
H           2.36574855774039   -0.89628221240524   -0.74929461290608
H           1.32831780743276   -1.63504641410316   -2.14881572632772
N          -1.64392403325802    1.85338661670279    0.36338934051910
H          -2.26493971654024    1.06939208662957    0.67599445394204
H          -2.10856020164468    2.75422476348520    0.39443188956608
H          -0.73589118624564    1.84204419970794    0.94608312255535
H          -1.34553086235754    1.58813657316298   -0.61808365386118
