    26
        -50.45875114  Gyration_radius:  2.52144834305 Dipole_moment: 10.920
 S           0.32532001910179    0.72346782604233   -0.77517245600877
O           0.39873799599771    1.20862779156333    0.60234348282131
O          -0.99536994751038    0.80470734424093   -1.33057409150162
O           0.76816463783669   -0.79119472159723   -0.71810053278762
O           1.36701033716105    1.33307847129597   -1.60742039379344
H           2.52998781670597    0.70452711481496   -1.19236577814229
H           0.05305140214745   -1.29125178691839   -0.22842844271853
O          -1.06058909512121   -1.98680990561047    0.65754296266067
H          -0.72040094687542   -2.58283395384609    1.32669689179830
O           2.66348359365103    0.72138622113534    1.73844310999007
H           2.90310992104961    1.51189511697726    2.22555333314910
H           1.74321688530929    0.88832600897447    1.39539185812044
O          -2.77799007335820   -1.32255893864092   -1.53185136197110
H          -2.13925277617312   -0.61837020950941   -1.71943540399242
H          -2.36255601544640   -1.86370996339117   -0.85142492795204
O          -3.50298697991795    0.96988295917651   -0.11476706790492
H          -3.70104270127548    0.12521286756556   -0.55153911467984
H          -2.75080474104335    1.31373221754370   -0.61648509726484
O          -1.79522653600405    0.18697365664697    1.78482182531280
H          -1.02747434360577    0.70743207500474    1.48681747990123
H          -2.55280539925877    0.51563632066047    1.24495547448090
H          -1.42569200360679   -1.18038525267138    1.15790738507954
N           3.36631417571396    0.11192666516404   -0.72038986371234
H           3.13348893248797   -0.86601117498102   -0.87498587393936
H           3.28260253498437    0.33096637155276    0.31294757985340
H           4.27770329703487    0.34534689879000   -1.10048095681846
