    26
        -50.45920941  Gyration_radius:  2.45376177399 Dipole_moment: 2.439
 S           0.92075523162468   -1.22873013748030   -0.78582005939464
O           1.40054965093275   -0.33944573300142    0.26875074499359
O           0.46443060278696   -0.51607709048144   -1.94892814060113
O          -0.05979035170072   -2.17130582980934   -0.24938079413734
O           2.16066083258499   -2.09997310259829   -1.23209009372087
H           2.34614472020847   -2.62284907360064   -0.45867810932512
H          -1.30432604487726   -1.07182424322348   -0.33636736523431
O          -1.81789515625497   -0.25221513754365   -0.50134942803810
H          -1.46341012250918    0.04823692027953   -1.34590636728775
O           0.17687774588238   -0.19008170458415    2.64252712579921
H          -0.25011645109022   -1.07011536479607    2.71676841654493
H           0.80775890340339   -0.27958696752166    1.89882290038141
O          -0.88947935996556   -2.61099186363295    2.24309005878388
H          -1.82787632988648   -2.79699040779042    2.18228903332531
H          -0.55581161478109   -2.58096385799312    1.32383064597440
O           0.78778241206975    2.25283532714879    0.16173671150454
H           0.58980021983402    2.41759178026118   -0.80189862899724
H           1.21990433637028    1.37233571538188    0.18356001050363
O          -1.22106788630484    1.43462730831812    1.35172226265095
H          -0.38696917426175    1.92953968899459    0.85597288797682
H          -1.59277241082000    0.81057224756152    0.64480777064096
H          -0.71877117742725    0.79896130223330    2.02799418976512
N           0.31334121071284    2.28465461018286   -2.45228379312123
H           1.05089410944100    2.68717490465179   -3.01631555115406
H          -0.56937116019760    2.52484445814173   -2.88553856156078
H           0.41875728419298    1.26977628091485   -2.48731584627051
