    26
        -50.45875113  Gyration_radius:  2.52122005343 Dipole_moment: 10.920
 S           0.38693607778648    0.70883755580733   -0.76093486650879
O           0.89747811704748    0.90726858351046    0.59491728133007
O          -0.91156432994102    1.28522780074279   -0.96306949454497
O           0.29259470168151   -0.85521896155852   -0.95666561241726
O           1.38230819559470    1.10003923319131   -1.76379160188386
H           2.32212719031955    0.08344050294029   -1.70896946568678
H          -0.43482628882418   -1.18611067045021   -0.35432432001071
O          -1.51410058421191   -1.64443939319892    0.71014878482088
H          -1.26761629485258   -2.42082464447547    1.21541732211073
O           3.04099994274992   -0.44179278428474    1.08701819290408
H           2.18311649962119    0.05693890522513    0.99862709456308
H           3.62780762351762    0.14101315715470    1.57231974067712
O          -3.31111459547680   -0.12312958210548   -0.91486994674177
H          -2.52378057660191    0.37129854637050   -1.18831076831275
H          -2.97455465420539   -0.87275854737501   -0.41166924579604
O          -2.91206556404462    2.00606055665867    0.84518673322230
H          -3.47000507740424    1.35106073786881    0.39458319691503
H          -2.20597212637554    2.17977136071751    0.20709217311718
O          -1.22417759190261    0.42507798922987    2.18259389344033
H          -1.91824796291014    1.05758515112535    1.87977133757705
H          -1.47487741507744   -0.86204302759195    1.35862491139682
H          -0.40293920434664    0.72678841096598    1.75402021160149
N           2.98567624024615   -0.80859199134636   -1.51562732487139
H           2.41014169938524   -1.62663441737525   -1.70030991473116
H           3.19067317675980   -0.75406624807637   -0.47742789537290
H           3.82598281146769   -0.80479822367164   -2.08435042679811
