    26
        -50.45611370  Gyration_radius:  2.60963519988 Dipole_moment: 8.326
 S           1.14242611121412   -0.26159754585615   -0.76789967339183
O           0.64538766531128   -1.48288680521817   -1.32485363709156
O           1.09342879061758   -0.21206556206938    0.69250831163687
O           0.21930938256460    0.93548073175061   -1.25544696098949
O           2.46728704448597    0.13871815138226   -1.26079407479680
H           2.50863028610142    1.48584734973013   -0.98147925813602
H          -0.72336300585878    0.65785784466082   -1.08740885256523
O          -2.23043061516591    0.18770337595943   -0.82375474050988
H          -2.83403265225894    0.54947217478050   -1.47450177465712
O          -2.09825457171223   -3.10407871514661    1.28329983674443
H          -1.76147414038037   -2.22735465125019    1.58013909761029
H          -2.94119396092037   -3.22877530529583    1.72110901222966
O          -1.34956265845074   -0.57329386841375    1.75989992387721
H          -1.84826348537874   -0.13064634144725    1.06208967885269
H          -0.41705185095674   -0.51701878556969    1.47890969868850
O           1.88989857697137    1.96263626710799    1.84900503105684
H           2.52441983152339    1.70359875919781    2.51936287743491
H           1.51142243635654    1.11174188233681    1.49835071003721
O          -1.90779419423360   -2.30379813375376   -1.29261440906142
H          -0.94524437771091   -2.21526624653634   -1.42360534196232
H          -2.00339155273382   -2.75581517748788   -0.42734925538170
H          -2.17385043902637   -0.81232100702826   -1.02190345879466
N           2.36612025703564    2.56444578226891   -0.66313802548671
H           3.12139129498063    3.17207038804456   -0.96156430093844
H           2.26953559994097    2.51325870863889    0.38935158539629
H           1.47465023763367    2.84208674921190   -1.06771197974738
