    26
        -50.46443325  Gyration_radius:  2.44678318477 Dipole_moment: 6.625
 S           0.98947507407469   -1.48825211025381    0.86663858876816
O           1.38917068977654   -1.57971238586403   -0.55368140733225
O           0.24641705962027   -2.63231002963220    1.31622231560343
O           0.27944787219889   -0.23108200579026    1.06822762744209
O           2.30951588617448   -1.40947032892215    1.70743009067581
H           2.75715722210645   -0.62695576343432    1.34084392816425
H          -0.67652864174704    1.02384888193247    1.12167493391946
O          -1.18693387540793    1.86774765710803    1.03098900939019
H          -1.33786511447727    2.17395482011070    1.92642320570123
O           2.91422667648506    0.55854259291880   -0.03363581730976
H           2.26324439074396    1.26799051091033   -0.11503522693581
H           2.52182984141036   -0.21163625073417   -0.47749562609822
O           0.76889245293431    2.43010148536936   -0.74996843551991
H           0.84179406341083    3.36210454113695   -0.96012209717528
H           0.08194704984568    2.34210251185319   -0.05422455177539
O          -2.29014517130537   -2.07827915790332    0.86796705684101
H          -1.35020405933283   -2.23444893294919    1.11315612494578
H          -2.64541107795860   -2.94147304016836    0.64875157128452
O          -2.46288955172865    0.06509534073481   -0.69740684600445
H          -2.31523585920576    0.79569384279431   -0.07772159365372
H          -1.11638734652811    0.02156277817311   -1.44013905074404
H          -2.47572141190163   -0.74398105866350   -0.13439774784145
N          -0.12358911422528    0.06143048389564   -1.86001082792760
H           0.47542228078435   -0.67387914428476   -1.35706600304930
H           0.27550236175956    0.98853114873503   -1.63740684743067
H          -0.13313168750863   -0.10722637706806   -2.86001233393471
