    26
        -50.46864960  Gyration_radius:  2.41908205522 Dipole_moment: 3.014
 S           1.31141429080982   -0.30754836431808   -0.15010327909093
O           0.70887677087188    0.55660626724729   -1.18655859920816
O           1.29777334022796   -1.69232036810058   -0.59457636022144
O           0.63215943324229   -0.13333134781309    1.12352772125046
O           2.78133895042599    0.13269584054390    0.01886350106806
H           2.72948971616374    1.02407464225752    0.46822418210781
H          -0.82745443130713    0.49960023814204    1.15960601013931
O          -1.75771027676440    0.84890737565451    1.15834200398058
H          -2.01988355166092    0.90295153209632    2.07906933193091
O           2.45198193549367    2.49965599572187    1.02767208199008
H           2.98535813098324    3.14194829493116    0.55407695519045
H           1.51209687618413    2.69288990683777    0.78266473229933
O          -0.50559750674207   -2.66726191666108    1.12795707666812
H          -0.30071744842612   -2.10390930158031    1.87990820314526
H           0.22339453266644   -2.48404117680315    0.50308101417960
O           0.01677840746736    2.80827367006822    0.02714116997800
H           0.24159782009183    2.06558988342543   -0.56848726056373
H          -0.75495995292597    2.49310194173927    0.51442685384036
O          -2.47683170808701   -1.41544738366849   -0.16205427748895
H          -1.90606528267053   -2.00888674003921    0.38284726286556
H          -2.40566989045685   -0.53684210450780    0.26553568723651
H          -1.62437215193819   -1.34698206558486   -1.40229096725453
N          -0.81141221961172   -1.27575726328124   -2.12862323065507
H          -1.11252871702882   -1.38419666867001   -3.09090638895445
H          -0.08334965877805   -1.95226356332438   -1.85272716851313
H          -0.30570740839067   -0.35750732416336   -1.93661624586501
