    26
        -50.45611367  Gyration_radius:  2.60909855462 Dipole_moment: 8.330
 S          -0.91478358353378   -1.04226382578221   -0.21237468549380
O          -0.03885664864463   -1.81897343659819   -1.03602833686415
O          -1.07984063527151    0.33978799721871   -0.65987114609365
O          -0.28663225692606   -0.93554472037736    1.24274047928557
O          -2.21834170495152   -1.66705465577437    0.05013769480866
H          -2.65444516570727   -1.01514507670480    1.18153427238569
H           0.66281916890909   -0.65556918559220    1.12519862368185
O           2.18900797929599   -0.22031107028877    0.91462681138652
H           2.75889055330587   -0.58351423973772    1.59429410529132
O           1.19726115518064    1.76034816929795   -0.85207814610008
H           0.33220163251005    1.31176487876653   -0.89722649980512
H           1.65107940719078    1.35331227204021   -0.10374676140284
O          -2.57555797895766    1.89056832134325    0.77479721307630
H          -3.20416487202715    2.29899371992188    0.17716482953111
H          -1.94063316021091    1.39234557341311    0.19276183651435
O           2.64992083290009    0.72178603067757   -2.85303026191221
H           2.05498114642534    1.18746320839883   -2.22112235115859
H           3.42803133435020    1.27318107460431   -2.94373123149573
O           2.61005393407210   -1.47250460011738   -1.27302935532355
H           1.68675156490858   -1.77888771782259   -1.34502006181226
H           2.70158268504381   -0.78348673055443   -1.96512491817533
H           2.42904481187219   -0.71624044664107    0.05504608453541
N          -2.84813448337881   -0.36629704562664    2.09043989513730
H          -2.88536942169925    0.61749901570635    1.70227847532874
H          -2.01544194828424   -0.46681629723753    2.66667688655718
H          -3.68942435640183   -0.62444120248989    2.59468652811671
