    26
        -50.45958858  Gyration_radius:  2.41982786077 Dipole_moment: 7.275
 S          -1.12737235898534    0.87828831099176   -1.18575491403261
O          -1.14139999081976    2.30139158735835   -0.99860279344256
O          -1.67165447880116    0.13645884304926   -0.04778019063007
O           0.16429950628458    0.32859600979625   -1.57840105477682
O          -2.09412979175023    0.57711710161696   -2.40694349603757
H          -2.66058189137312    1.33831229832023   -2.35427852708863
H           1.36918432217174    0.57235086095854   -0.51738790508021
O           2.06051129138642    0.68990512236111    0.17702036252831
H           2.88389972984384    0.86944491788395   -0.27866139773600
O           0.39410398730387    2.73427452473579    1.19667759299389
H           1.15900158380616    2.20027204108038    0.94154493145015
H          -0.18698744496584    2.75503579836893    0.41618718093633
O          -0.61341689387004   -2.08074299010064    0.54309562937965
H          -1.14595244055271   -1.24634114144753    0.29831017918371
H          -0.10295386814704   -2.33643087036913   -0.33743608276561
O          -0.89978416560586    0.81729320861553    2.53794414291821
H          -1.45314137500236    0.59980966913880    1.77348851200922
H          -0.45323323753344    1.65321177082632    2.27987898714645
O           0.95739690705958   -0.94035532696019    2.08086416406570
H           0.28784529870647   -0.29042199328295    2.45196824230853
H           0.10967786011087   -1.68739761638837    1.25481249776836
H           1.52355073717493   -0.40376055490336    1.49764852060629
N           0.56146054635338   -2.41869146939223   -1.69598755734060
H           0.05176384534777   -2.93124516246748   -2.40329142082126
H           1.53298418725882   -2.69728484443583   -1.73541890171463
H           0.49492811459006   -1.41909008534996   -1.90949672182741
