    26
        -50.46443325  Gyration_radius:  2.44673378604 Dipole_moment: 6.623
 S           1.04023648078831   -0.86318325137149   -1.45490284831251
O           0.66400595828628   -2.18537511016839   -1.87135631325675
O           1.97413085504720   -0.86134639621692   -0.30894323467701
O          -0.10319235150702   -0.02235892739697   -1.12211319977647
O           1.78387892657693   -0.17455687579189   -2.65010533702280
H           2.01383583706338    0.70027965451249   -2.29108360933112
H          -1.39447223715997    0.70129451371021   -0.57299623133306
O          -2.10107398302204    1.23681285274354   -0.13169904361182
H          -2.69807556059974    1.50166348798399   -0.83297354816707
O           2.24994250139956    1.75180832991842   -0.82175429997614
H           2.38366890626963    0.86204822072029   -0.45486370779547
H           1.47191793118477    2.10670802082259   -0.37179807257878
O          -1.49272786572135   -2.80166653998537   -0.48934630878536
H          -0.74315135296152   -2.52414996642226   -1.06309021286262
H          -1.38271735859859   -3.74564912635955   -0.36192408117270
O           0.03793566781121    2.47373272412985    0.96843537018661
H          -0.78188904356170    2.14261981900599    0.54205923727804
H          -0.16414410344874    3.33212694968873    1.34319467507033
O          -1.81270636938480   -1.04105496266814    1.47824198666482
H          -0.37206267180078   -0.54834823356557    1.69745564163197
H          -2.20674948516053   -0.28098691152151    1.02363994411263
H          -1.74631151735192   -1.74100452960209    0.78727370175659
N           0.61255836565205   -0.11195215320668    1.75831726724494
H           0.51354205529095    0.90838354510647    1.62624747682705
H           1.18929857418923   -0.48666690611824    0.93413586272809
H           1.06432185072525   -0.32917822795938    2.63994888516804
