    26
        -50.46443324  Gyration_radius:  2.44678580863 Dipole_moment: 6.626
 S          -0.21618599998145   -0.85412967755206   -1.78035794887721
O          -0.58887363011130   -2.24031243412581   -1.83212199101318
O           1.24340566434442   -0.65152818664672   -1.66196301105742
O          -0.87405220264371   -0.12600069789315   -0.70226036476097
O          -0.66173332499471   -0.18418860884947   -3.12512261388312
H          -0.36785775755808    0.73749086521796   -3.01925641659767
H          -1.45913495089158    0.48732792082254    0.62941078966118
O          -1.69798376213904    0.97293182580732    1.45888484810873
H          -2.64506893449396    1.11129698705985    1.41166805092062
O           0.70262825810947    1.92542744711732   -2.14568608574411
H           1.18001424982161    1.08962051843811   -2.01248636705345
H           0.44615169176683    2.22438508495624   -1.26332565821033
O           0.37990953580112    2.53226285877900    0.70852779538570
H          -0.43970352627249    2.07544814785116    0.99713058856204
H           0.39266608906561    3.38927707652510    1.13686665050948
O          -0.98313096512929   -2.98445738960419    0.66454630226577
H          -0.92202391838055   -2.67055761302645   -0.26590402639312
H          -0.68637416549371   -3.89609425543905    0.64815398702580
O          -0.03124724946364   -1.11835082621341    2.30332051727258
H          -0.73147125941269   -0.44814774965422    2.29435634907258
H          -0.38543676190227   -1.85978850517468    1.75871450636082
H           1.04097924462429   -0.44721134898581    1.42769082466952
N           1.69583657509965    0.10265113450378    0.77020746588458
H           1.39255923396360    1.09076964094077    0.77777810057650
H           1.54895770556552   -0.26937586861709   -0.22595204047300
H           2.66717016068689    0.01125365379720    1.04717976779125
