    26
        -50.45958869  Gyration_radius:  2.42013848977 Dipole_moment: 7.263
 S           0.84446825819006   -1.11762827161149    1.22279627345126
O           1.61901577620144   -0.17512134610449    0.41439991045675
O           0.93613072133104   -2.47403159710405    0.76178575377014
O          -0.51616957029982   -0.62832677609941    1.40709996931377
O           1.49441370909937   -1.09096796395464    2.66947170443200
H           2.07719374047105   -1.83811657228653    2.59720022672146
H          -1.43024153944164   -0.63441477917169    0.06497349952438
O          -1.93695592463095   -0.59838410434443   -0.78119846392361
H          -2.83811635074012   -0.85019743154139   -0.57531705605668
O          -0.03045336428344   -2.43651454512137   -1.77268038979227
H           0.35277350271694   -2.62277800217033   -0.89751085601858
H          -0.84669996357394   -1.94631346972278   -1.60311292781432
O           0.66659212671673    2.13535619871262    0.03735985300148
H           1.14986896046738    1.25929816457908    0.23326721179107
H          -0.04568227518115    2.22250906310450    0.80278806718689
O           1.49336978484676   -0.32039491874564   -2.36116049059257
H           1.84372500831286   -0.26974058821016   -1.45964191056308
H           1.02077149249357   -1.18117822864290   -2.38656684096217
O          -0.46499584118770    1.35039930216922   -2.02036869413652
H          -1.13727653565661    0.72159604384834   -1.70226596709393
H           0.14348288413937    1.90359135283645   -0.88895481080827
H           0.29056442507706    0.77224487457760   -2.34256509895795
N          -1.01933084334232    2.05072988596214    1.95077060116846
H          -0.71286070060202    2.41011894265322    2.84500689336545
H          -0.97321686255275    1.02795835055885    1.97960164967475
H          -1.98037062857327    2.33030643582659    1.80482187285835
