    26
        -50.46049321  Gyration_radius:  2.43422652063 Dipole_moment: 2.674
 S          -0.63214369530655   -0.18211086216446    1.73869771218337
O          -1.94024756936525    0.17046699941944    2.23288707185050
O           0.17199593663643    0.96593969687571    1.34753310274062
O          -0.63685478364252   -1.20504782481315    0.70791608650156
O           0.11805328782812   -0.83424091221627    2.99292568213460
H          -0.49627352281300   -0.66325253389151    3.69957862642082
H          -0.52033151853833   -1.29480196648936   -0.90726277289778
O          -0.41097647893502   -1.32782822817673   -1.88856357227629
H          -0.85441703897620   -2.12706880249574   -2.17544549793618
O           0.95818407423292    1.74344534035197   -0.92716321219644
H           1.55811330520566    0.92607319409663   -1.26102092777075
H           0.67984341416877    1.49564743999238    0.02140349732391
O          -2.77356408841636    1.33099533154852    0.02071546525347
H          -3.07337385894599    2.19163245779856    0.32007295307207
H          -2.51504909747893    0.84202876897025    0.82965414896954
O           2.14877058285579   -0.34396235326717   -1.60622983109197
H           1.37227887211296   -0.83555092910125   -1.92426810759512
H           2.33617292036143   -0.70908857933733   -0.69491324477904
O          -1.19037235714651    1.26545984021788   -2.12220572480215
H           0.06758917873086    1.66414675366429   -1.48759550977158
H          -1.03662064734089    0.31141889593333   -2.25644685700182
H          -1.85585786572279    1.32374314553095   -1.40093340582586
N           2.21718792013501   -1.13458353737156    0.91955916157401
H           2.36086802118309   -0.32215391984932    1.50737792102158
H           2.72310608852967   -1.90651422104698    1.33551825071213
H           1.22391893065212   -1.34479318417429    0.97820895417812
