    26
        -50.47636629  Gyration_radius:  2.42305740185 Dipole_moment: 2.571
 S           1.40918166952934   -0.56357327425471   -0.49485292887817
O           1.65837799132685    0.59800029302321    0.34808876000632
O           0.95300892462333   -0.19341794145408   -1.82270574532903
O           0.46574552251626   -1.49006334695498    0.13878949028813
O           2.77493938408739   -1.30687318517983   -0.62354409318496
H           2.55787048674192   -2.06138474480293   -1.20333773498315
H          -1.07616446377666   -0.97627259783533    0.10591994331959
O          -2.00849491632653   -0.64512126017367    0.07422742133091
H          -2.56860217564112   -1.42244707758945    0.04546686544676
O           0.57792285604552   -0.25185891148025    2.65749119715113
H           0.39088479018933   -1.13998965625877    2.33785741563712
H           1.13825459785113    0.13067642412543    1.95809938550400
O           1.22813656736123   -2.88494226927507   -2.07816797170721
H           0.69815670037525   -2.85260119313528   -1.27034647446071
H           1.01142438527939   -2.06860751518956   -2.54882128437294
O          -1.27451333651847    1.25465268422767   -1.80609688107392
H          -0.44941625796517    0.76367596744753   -2.00826163533451
H          -1.81870676952242    0.61958989304578   -1.31311654250303
O          -1.61024618956157    1.18887527586035    2.10475746230969
H          -0.86250176648047    0.70422998802541    2.52432305676737
H          -0.84288914813562    2.10588177985067    1.09280812663507
H          -2.00465916815838    0.54748410879153    1.48978765681022
N          -0.23398950313534    2.45207684238306    0.27926044352236
H           0.63992453676959    1.87330009365573    0.30685184529626
H          -0.03229572269073    3.44362463211284    0.33261042825656
H          -0.72134897489087    2.17508501108414   -0.62708819644894
