    26
        -50.46337596  Gyration_radius:  2.55537695969 Dipole_moment: 3.972
 S          -1.10824502214975    1.14400266735161   -0.77118398327155
O           0.29537958528685    1.52384002675755   -0.88007442190882
O          -1.64460323836550    1.34743120919750    0.55176263262370
O          -1.29074106457809   -0.24508591545659   -1.22032097749866
O          -1.91966845548206    2.05171008452228   -1.75253173683658
H          -1.59513581462095    1.76418873352203   -2.62633633878927
H          -1.03283085474062   -1.12595219712185    0.07791306620710
O          -0.83791021871361   -1.71141278699637    0.85604660913789
H          -1.69591640090067   -1.96191444646127    1.20247215021093
O          -0.10725989561570    2.00180095265348    2.57645318278512
H          -0.65326477212538    1.84489221276877    1.77160515265435
H          -0.71856545505097    2.31176318097331    3.24653174512541
O          -1.02313482457200    0.49558365522034   -3.71832170627867
H          -1.69070584882723    0.07244238425225   -4.26284663760847
H          -1.00179035642580    0.00055397269256   -2.87352208247600
O           1.45804194300619   -2.66336134296370   -0.32339670346484
H           0.55429167662328   -2.47651284472366   -0.01108114390919
H           1.84308484086477   -3.26265967654153    0.31895686566724
O           0.99902478052349   -0.40866431885700    2.46654796937539
H           0.63855256256797    0.48785483496680    2.65560561792856
H           0.26108101090349   -0.90615624663093    2.07092872589144
H           1.79143601021286   -0.13537327465057    1.14626609589235
N           2.08545833139594   -0.05540432582111    0.11744785471987
H           1.99294360722273   -1.00892395521473   -0.28632554544948
H           3.02385398269768    0.31250330181061    0.01167369363555
H           1.37662388087013    0.60285410475815   -0.34427009435477
