    26
        -50.46337610  Gyration_radius:  2.5557277626 Dipole_moment: 3.972
 S          -1.55363779531391    0.68569192265047    0.49716404213678
O          -1.89392971825826    0.64368775161284   -0.90343675485849
O          -0.41631786170748    1.55314596646947    0.77999768431731
O          -1.30499410906503   -0.66200708652513    1.03275282045595
O          -2.78871735470539    1.26105441078371    1.26441701720635
H          -2.53879958468986    1.13211335596963    2.19849951150977
H          -0.53740865488968   -1.42445814650208   -0.13260870068717
O          -0.02010821137625   -1.92024728068675   -0.82018235994685
H          -0.66327968914528   -2.47184302306828   -1.26845025099633
O          -0.37061576893395    1.75266093723702   -2.73109633067502
H          -0.92860174619413    1.79546155144913   -3.50929814375392
H          -0.95309390220018    1.43174738310818   -2.00425681903241
O           2.22984010904189   -1.94179993268618    0.76384172227123
H           1.38501105298193   -2.10483149663089    0.30691938675077
H           2.90476230870301   -2.37551483140788    0.23807119512508
O          -1.75140240219329    0.18748516585656    3.46906006516051
H          -1.41085100795726   -0.28683159150248    2.68272512757425
H          -2.30842903187629   -0.43573304292489    3.94078200427814
O           1.48345000084587   -0.08342279560094   -2.24435431125452
H           0.91372348515401   -0.80437873022366   -1.92142502474545
H           0.86649294137403    0.61460950517067   -2.56312809551260
H           1.89033601805700    0.49497616400369   -0.84955618483241
N           1.95770482681318    0.70370652901742    0.20080277837931
H           2.14126460414948   -0.20728840760358    0.66677951717920
H           0.99459964104209    1.07230817328258    0.49333553387608
H           2.67300183033593    1.38970751875073    0.41264457007929
