    26
        -50.46337558  Gyration_radius:  2.55680007488 Dipole_moment: 3.985
 S          -0.92958002781814    0.23020326264265    1.49065394661534
O          -0.80512188185869   -1.16490920232020    1.08538439899838
O          -1.85341787149799    0.97359451090403    0.67016429400997
O           0.39681633383106    0.86646768058321    1.52225219188079
O          -1.47962125319763    0.24936555821499    2.95424342274541
H          -0.74748999444455   -0.14717193669398    3.46246247454235
H           0.63241471654864    1.39169736280483    0.04093606165076
O           0.83375540784680    1.69827999374953   -0.88214267177690
H           0.66421240720176    2.64171356978473   -0.87584851827151
O           2.80811069514780   -0.19050418427937   -1.18854540832176
H           3.13198553564946   -0.07648260842349   -2.08414657053592
H           2.25661891636728    0.59022430626211   -0.99882328141812
O          -2.89431323013901   -0.04125965350529   -1.51487088762505
H          -3.62930521197764    0.53945832795856   -1.71806408979287
H          -2.54949954584821    0.26232427798953   -0.64328296670616
O           0.98144900711787   -0.38873202088804    3.74497161829136
H           1.02162890226997    0.04697638755307    2.86873083087508
H           1.39770759248658    0.21343376428262    4.36576719883317
O          -0.49441196236735    0.02719262597564   -2.64632102728637
H          -0.09875529438518    0.76026582005840   -2.14188292571204
H           0.09179283276019   -1.14629295958044   -1.79510190621321
H          -1.43982889903104    0.00102731742542   -2.37232552986336
N           0.57195816117975   -1.72744135036399   -1.03149993629941
H           0.56620177427094   -2.71910155223134   -1.24043152650983
H           0.02884342855646   -1.53755698865789   -0.12716094213921
H           1.53784946133570   -1.35277230922206   -0.94511824997378
