    26
        -50.47215826  Gyration_radius:  2.43218897131 Dipole_moment: 2.532
 S          -0.66295191143069   -0.87836432883269    1.07375098372971
O          -1.39160920008728   -1.09478907605062   -0.16144626177436
O          -0.42993815001462    0.55526203991356    1.30514928794301
O           0.58035181176177   -1.62478472102995    1.15714202916857
O          -1.60413914738644   -1.35988677199375    2.22592227901475
H          -1.05875541690599   -1.21533508155561    3.02489078534917
H           1.64268080069380   -1.42633520939067   -0.08589863904040
O           2.24171809267349   -1.19941158866051   -0.83427064116933
H           2.97484276028834   -1.81525858036969   -0.79114488983159
O           0.49204363037875   -0.64771188277775    3.66288242030342
H           0.91179789541216   -1.14679360663051    2.94498509402497
H           0.45764959557413    0.26248667341321    3.34995977634325
O          -0.11473900813007    1.76503564921436   -2.36357173898784
H          -1.23724366562913    1.67442702618828   -1.45059144278827
H          -0.05240476738807    0.82178210342622   -2.65651400026532
O           0.04005925396781   -0.87428468541436   -2.49156180583509
H          -0.55092637659951   -1.11648251271749   -1.75934775711674
H           0.93221757308690   -1.05447486417030   -2.15651271318923
O           1.56630125907238    1.45669798935250   -0.33269741255275
H           2.03579160861361    0.64295113072662   -0.57049818746453
H           0.62717820404159    1.85728482796822   -1.71818095637770
H           0.93049787474466    1.19586758245467    0.35540528856964
N          -1.95870387333298    1.41119145666693   -0.63849466382524
H          -2.80279067875488    1.97215263211453   -0.63213703263669
H          -1.42885727749835    1.44671399906322    0.25969441237280
H          -2.14007088717229    0.39205978905975   -0.71691422393707
