    26
        -50.47061127  Gyration_radius:  2.42517682945 Dipole_moment: 4.948
 S           1.54011172614665    1.31054789454132   -0.28262429287457
O           0.65247088796705    1.62573956514349    0.84001653684453
O           0.82277135490498    1.22896505012079   -1.52844115920173
O           2.36543559259747    0.14723549544240    0.00290149326623
O           2.56224004781895    2.51625263205427   -0.38879473709677
H           3.36447042650063    2.09614706988259   -0.09868313151260
H           1.82042799635130   -1.00000186243996   -1.12407278418529
O           1.36751113980521   -1.50354802064582   -1.82717966761291
H           1.17682079626470   -0.84267104448554   -2.49979374969092
O          -1.93301171801425    1.34370558529366    0.88743937565449
H          -2.29632792125117    2.08223076805953    1.37791879741435
H          -0.95906116226150    1.51715867087764    0.81672991881009
O          -1.74727622909602    0.47273552664876   -1.79510214768233
H          -0.83118657156241    0.80594631136689   -1.84765867666880
H          -2.10881656887024    0.87548218908268   -0.99551135377320
O           1.04192838982645   -0.56427708346793    2.23278123469328
H           1.76963883106076   -0.86775636727854    1.67517942149124
H           0.90803895647945    0.35501386419987    1.91520075452537
O          -1.14498875101157   -2.01380109491681   -1.10796641278606
H          -1.25279459130238   -1.68367943975888    0.32366812547489
H          -1.50208715772540   -1.18639527625482   -1.51429034211335
H          -0.19464466022149   -2.01401144287656   -1.36987648659019
N          -1.34867278078408   -1.29150765389935    1.34824515416628
H          -1.90792161214109   -1.90849312169793    1.92610837895461
H          -1.78116989948784   -0.35257001276668    1.27375288906507
H          -0.38390651199373   -1.14844821220219    1.76005286142907
