    26
        -50.46970033  Gyration_radius:  2.58938461128 Dipole_moment: 2.421
 S          -0.96829321884200   -0.73614454452444    1.11861629466408
O           0.45695481365562   -0.49495058869028    1.33304074626845
O          -1.18394176942890   -1.66322417780733    0.03007562460373
O          -1.69465299298623    0.52207157341351    0.91257273615612
O          -1.49826987817534   -1.36837197426275    2.44265118840766
H          -2.46896444127304   -1.31170468675926    2.34615084630892
H          -1.07917979593792    1.24655210164515   -0.38492796825209
O          -0.65404585592663    1.65881757937839   -1.18027900768873
H          -1.27112543888137    2.32175216577526   -1.49522259698362
O           1.54075035237976    1.86663668737641    0.52401006955719
H           1.20400958864996    1.11246912436650    1.03969889989056
H           0.85281269347075    2.02625282952908   -0.14091581975868
O           3.53812593534319    0.82353385186971   -0.83240381333542
H           3.63384626129989    1.35574257302213   -1.62362259723632
H           2.90617307194836    1.31470172009611   -0.24230850362669
O          -3.92450427144953   -0.50971935386332    1.82990396741865
H          -3.27272358032301    0.02754575713879    1.33576689785651
H          -4.32201234076169    0.07287638674339    2.48115479684585
O          -0.17079952729600   -0.83176113346905   -2.24897011034493
H          -0.31948499272036    0.12085251201746   -2.11821002294590
H           1.16932201138475   -1.16100198398537   -1.48820427070615
H          -0.71735741839430   -1.25724460660248   -1.55098375733927
N           1.90735068592529   -1.28066830524078   -0.72251797204851
H           1.38979602920124   -1.07558949953272    0.17643712871482
H           2.66405595735940   -0.55714751778079   -0.83141502789442
H           2.28215813181847   -2.22227647985378   -0.71009771851604
