    26
        -50.47029251  Gyration_radius:  2.48019080933 Dipole_moment: 3.131
 S           1.42357753272890   -1.32751394030349    0.63476089510170
O           0.99636473875480   -1.08924262351975    1.98691706083358
O           2.21681608213180   -0.24427434310923    0.05997193195008
O           0.31975167885593   -1.67719094411681   -0.25724193616296
O           2.37823627504271   -2.58944665092963    0.67417846263839
H           2.67794258451702   -2.67701546497306   -0.22530332481728
H          -0.90241851840313   -0.97144955952745    0.60147035997858
O          -1.57824934250558   -0.47054739473986    1.11073043231755
H          -1.35916271588232   -0.65100702163457    2.02898484497448
O           1.50578286668545    1.50944231525362    2.18028036376636
H           2.27732446549626    1.51866506483445    1.60797612778131
H           1.31043157183921    0.55887668322742    2.29874502930838
O          -0.79435734159966   -0.58934514032023   -2.46475517681239
H          -0.41299289386439   -1.19914255837259   -1.80787357740724
H          -1.71648062229092   -0.44693782737997   -2.16847411338627
O          -3.15613267134384   -0.29646617270347   -1.15737910660319
H          -2.75329620303581   -0.27812645216999   -0.27464649734606
H          -3.78161203984250   -1.02260186142075   -1.15699083196545
O          -0.67752350595531    2.09963164160079    0.74853651566156
H           0.04262810615171    1.76133053412965   -0.59306131661480
H          -1.19181300956783    1.28945606507389    0.92179882998792
H           0.07023614318204    2.06617329012788    1.38671451778423
N           0.63832771078086    1.31967802662102   -1.36832454262762
H           1.07653346942774    2.02416840447694   -1.95054528579186
H           0.03276205141618    0.65442208860861   -1.94142600060778
H           1.35732357715392    0.72846387129174   -0.87504368190661
