    26
        -50.46970034  Gyration_radius:  2.5891732355 Dipole_moment: 2.426
 S           1.51749939599318   -0.60129436198004   -0.25659391321921
O           1.74067924029892    0.72714248266725   -0.78215582843887
O           0.31477007799606   -1.20135444512320   -0.83012595065776
O           1.46489799893771   -0.60377155050719    1.20974987645726
O           2.70013980632663   -1.52570631723656   -0.68152685986926
H           3.43537745557540   -1.22626031248792   -0.11188111836638
H           0.17814131047668    0.24696989944653    1.66616233882753
O          -0.63501725178249    0.76682890688734    1.89340909572260
H          -0.54281785271654    1.01071935125221    2.81617192379088
O           4.08074339543251   -0.63722130654592    1.39296872679245
H           3.12975681905917   -0.48536602383002    1.56677016787968
H           4.36658699958180   -1.31642902892289    2.00817500870191
O          -1.93394310271216   -1.38589226660227    0.69130686474746
H          -1.13402409905683   -1.56808490100269    0.16684621466492
H          -1.67519755791040   -0.65469946923358    1.27375215454724
O          -3.56090290516636   -0.28811305220932   -1.05940344940044
H          -3.06367843470345   -0.83141723095240   -0.39120890362862
H          -4.16053695954378    0.26753026923660   -0.55940005762692
O          -0.25904459039361    2.36878529366732   -0.31414177740636
H          -0.52809489232602    2.00567305956990    0.54749743188522
H           0.62510804554482    1.97026300801806   -0.47642528849652
H          -0.94165572990147    1.44705738576536   -1.39516953994647
N          -1.22517353821309    0.59968957803846   -1.98392925229038
H          -1.09646519801610    0.77387876693368   -2.97408188279845
H          -2.21354573283808    0.31576503168680   -1.75960368800780
H          -0.58360268991230   -0.17469276649457   -1.65716228386682
