    26
        -50.46143201  Gyration_radius:  2.46505647276 Dipole_moment: 6.476
 S          -0.88198498676783   -0.60535977408881   -1.74138475503413
O           0.09890195462801   -1.68622082458946   -1.66276852869495
O          -0.24724003127905    0.65152889791161   -2.07078248524581
O          -1.72343295410866   -0.55475449027974   -0.55560967048326
O          -1.86593656754723   -0.96226755051137   -2.93028521745907
H          -2.68433396340358   -1.18268118773482   -2.49573636246932
H          -0.70194082866603   -1.18921635784816    0.56466637565524
O          -0.00285909833212   -1.55610555423219    1.15332148697295
H           0.25957436132221   -2.37920952991299    0.73549535102854
O          -2.05041944842105    1.47064129596846    1.33992453933336
H          -1.76738299192515    1.03226431213600    2.16229201480506
H          -2.16236656200727    0.76331903841573    0.68851870043311
O           0.22317050932552    2.17212312717318    0.14091540823111
H          -0.61496697865009    2.11214780138591    0.65599609175257
H          -0.00322843632162    1.79735384119310   -0.72678725662410
O          -0.72411041340790    0.05488138361956    3.31598012704865
H           0.09764457330665    0.52687948647914    3.46680535494085
H          -0.51413015361900   -0.68563797753220    2.72928523505206
O           1.89886264561164    0.36377652009345    0.93455620632786
H           2.23163088351612    0.04833001103661   -0.46733059797688
H           1.31528810003497    1.16103078224780    0.75933853916196
H           1.27661669605776   -0.35595137653357    1.16382191489343
N           2.20271366779081   -0.19386727775981   -1.54674553371548
H           1.73840052939184    0.58798036137758   -2.02121949144484
H           1.49198292640961   -0.97900902507572   -1.64731841817412
H           3.10954656706760   -0.41197594293638   -1.94494900831023
