    26
        -50.46143179  Gyration_radius:  2.46520351724 Dipole_moment: 6.482
 S           0.79250919407446   -1.84907625107987    0.35937546484231
O           1.56566055361196   -0.95292667097397    1.19028187592502
O           1.20375882281000   -1.75696554637072   -1.04024058814675
O          -0.64755357451025   -1.70492983969978    0.50738680951299
O           1.11084415462291   -3.32552538805885    0.83665832318497
H           0.25338437310433   -3.73012352011857    0.92759725978803
H          -0.99169138039716   -0.77162221143165   -0.80087076074311
O          -1.07947635368995   -0.19578399368826   -1.59490741495899
H          -0.67772442710352   -0.69933695735987   -2.30621757259451
O          -3.06338419696627    1.39577684501285   -0.44465513778805
H          -2.54731823447109    0.81104945980156   -1.01780397252113
H          -2.64359756627412    2.25780603541315   -0.48298342910461
O           0.24765118699859    1.38257374755587    1.67724972937732
H          -0.66937002315942    1.09889129016249    1.90064949384763
H           0.76251692005510    0.55847511909874    1.69287709615238
O          -2.13833354445651    0.21501907759857    1.88309034849334
H          -2.66856084147281    0.61493323982541    1.17063747872784
H          -1.76137222158693   -0.59455196018725    1.50939513984943
O           0.43371390519699    1.92635272014314   -0.84847825163005
H           0.30616121245319    1.88283822533183    0.14575994986216
H           1.71327493837333    1.19524673021070   -0.91768658098000
H          -0.19623770438470    1.27040651704972   -1.20996137253397
N           2.52687307700712    0.45022298677005   -0.83226654889766
H           2.70247555541010    0.30572353884255    0.16812939433956
H           3.36574154089625    0.69422066337247   -1.34724407714293
H           2.10005462385408   -0.47869384721953   -1.12577265685262
