    26
        -50.46143210  Gyration_radius:  2.46440339791 Dipole_moment: 6.482
 S           1.34848834311424    1.48468490369809   -0.39293318190261
O           1.89246777711905    1.10061465813740    0.90827507705881
O           0.08302118363847    2.16935505773058   -0.24733418003159
O           1.31453983577442    0.35987815548824   -1.31496030121861
O           2.36889025268943    2.51288739126613   -1.03350346604309
H           2.77031735055716    2.02724390337835   -1.74778402617126
H           1.17068939236070   -0.89090498912319   -0.25823379470251
O           1.06078187426450   -1.55675439376534    0.45892357324108
H           1.79397674202393   -1.39394890812921    1.05631860255377
O          -2.03360578117953    0.49625976855209   -0.63050464420596
H          -1.79085426082487   -0.01811477307838   -1.43542066739668
H          -1.38210206683537    1.21680272000866   -0.60253644346147
O          -0.84802112674323   -0.86608734490936   -2.58878678204291
H          -0.00642023766361   -0.44993334221927   -2.35272477974406
H          -0.79782148107990   -1.77819207380261   -2.25086704444067
O          -0.66629321105396   -3.15596703016928   -1.04242970601754
H           0.06421744038598   -2.81246608525021   -0.50867310623980
H          -1.44385297192457   -3.14924583930217   -0.48006382196877
O          -1.31614005087910   -0.78000388429622    1.50627325923293
H          -0.49990509633437   -1.21127101687829    1.18127877717149
H          -0.79278286498714    0.47269786213609    2.08457562625289
H          -1.74018542007666   -0.38392735882058    0.68773350510782
N          -0.27804008420893    1.43512344047817    2.26568256829322
H           0.71940559426809    1.29822908774173    1.92278825824409
H          -0.33853503562192    1.76165924624560    3.22388654745777
H          -0.65223607677712    2.11138082490119    1.59102014097411
