    26
        -50.46899343  Gyration_radius:  2.38330621516 Dipole_moment: 5.751
 S           0.34003143824242    0.17835277091352    1.46861078842576
O           0.50800810257699    1.60746726518475    1.54301783460307
O           1.22253953524005   -0.39699528740541    0.42809025427046
O          -1.04518329098093   -0.19535120807516    1.17013050182819
O           0.73503544264782   -0.45142064743271    2.81562258265754
H           0.86536434322042   -1.41416792248535    2.58724335563499
H          -1.76821605335433    0.69649219592367    0.04706903044023
O          -2.11593417265223    1.16260368863038   -0.75659921949016
H          -3.05895837774971    1.26239948143829   -0.61767776755478
O          -0.32024811610950   -0.69834163117922   -1.84240145246513
H          -1.11318524219022   -0.16611781074581   -1.67705269895631
H           0.10624925655094   -0.80740766256801   -0.97417575418633
O          -1.20265283305395   -2.72652386631863    0.36839320421315
H          -1.29950807121362   -1.81621870502071    0.71545497046414
H          -1.12831972021202   -2.64315750157870   -0.58655527219472
O           1.11439762327216   -2.75935868240976    1.73608251395867
H           0.25005633726670   -3.01429196424858    1.34919323908821
H           1.55149680387080   -2.23905330734235    1.04853035978630
O          -0.11067578996907    3.00243193408511   -0.59680945134651
H          -0.96703125558084    2.57150211110926   -0.77595952449230
H           0.11257594128178    2.71369818619580    0.31718709720330
H           0.89456685824642    2.09755797084946   -1.28874633499188
N           1.49937492628652    1.24251510726499   -1.58501986615402
H           1.63934993592932    0.68297047594440   -0.69724665303996
H           2.37399003599522    1.50066764918398   -2.02765766310248
H           0.91687635243705    0.60974739008149   -2.16872406460335
