    26
        -50.46235927  Gyration_radius:  2.41902901705 Dipole_moment: 5.445
 S           0.15308623464973    0.06243900919915    1.56086397392306
O           1.23975097022844   -0.86929860094016    1.70198212810041
O          -1.06700491488197   -0.56420994005209    1.05943111881953
O           0.51122517412476    1.20779027788956    0.70249150775941
O          -0.16234345977372    0.63336017521474    2.97741401366617
H          -0.77354770004305    1.37482487315601    2.81153274637522
H           1.61523129723010    0.33339513816931   -0.30075888888975
O           2.14161941028135   -0.26277458323569   -0.86359799530808
H           2.67352136265273   -0.76308863895699   -0.23817698228376
O           0.21019739966228   -3.09615995798812    0.66861987903508
H           0.69530810287781   -2.38136363947780    1.12847004085625
H          -0.70648925378893   -2.97032079998731    0.92735621790326
O          -1.51901423547745   -0.64883687641383   -1.41637476171008
H          -1.15193902103835    0.29016635875228   -1.73707864822581
H          -1.45608167744754   -0.60999276020052   -0.39525184614712
O          -1.23520288466410    2.79080497562156    1.84670556699508
H          -0.58447668124574    2.35972680540687    1.25604437049471
H          -0.82779647435364    3.59854591916009    2.16716192932943
O           0.44116953658837   -2.12580768564953   -1.77602642907978
H          -0.73789384880839   -1.34527639011834   -1.67235285164949
H           1.15937791299483   -1.47535872058598   -1.60295980542876
H           0.39883684512391   -2.67789580032366   -0.95444970895568
N          -0.41361846781926    1.57421436980124   -1.97287211323748
H          -0.01021827280079    1.68598683103140   -1.04206840406088
H          -0.94215395394660    2.40445632650105   -2.20456893850152
H           0.34845659943322    1.47467334401293   -2.63153612960823
