    26
        -50.45894430  Gyration_radius:  2.4316701027 Dipole_moment: 4.926
 S           0.27256950007760   -1.74853357449875   -0.54025810331654
O           0.08345967974306   -0.37219348098736   -0.97512903232602
O          -0.91831762496985   -2.54957000648728   -0.63842044963281
O           0.70112541321006   -1.65589825343208    0.98521909546130
O           1.46406078734559   -2.32140028759901   -1.17305532725317
H           2.30467135146180   -1.24280870759846   -0.81034932221816
H           0.22007406145890   -0.91074119154706    1.41298441831707
O          -0.37523873662659    0.45531672343906    2.13155149565385
H          -0.67412537880105    0.34812900251523    3.03538573486304
O           1.56177338154995    1.63154544563141    0.56201403793558
H           0.97577913249350    1.26344678609326    1.24590195826161
H           0.95287699181526    2.00871940488918   -0.09312943926964
O          -3.02209551047457   -0.95581818939310   -0.66055727759880
H          -3.72582722601072   -1.55215353133318   -0.39948987686971
H          -2.21419506184761   -1.51273674369345   -0.72559192534820
O          -0.56055199219900    2.12555868126637   -1.20843045590156
H          -0.39513826912145    1.15443342056845   -1.19411335005292
H          -0.80928576200125    2.33657685809816   -2.10904499575173
O          -2.36029491501508    1.25462782796708    0.71196164607529
H          -1.88140840359155    1.78014028457001    0.04987649205095
H          -2.67662256326210    0.46356557238439    0.22310856452059
H          -1.17933565727161    0.76839922008666    1.59974873620237
N           2.93267422774716   -0.39107477773747   -0.45019980162297
H           2.29803356000141    0.39877081652575   -0.09029704995820
H           3.51758819430723   -0.04870195080012   -1.20669130066901
H           3.50775079999661   -0.72759934895227    0.31700552844240
