    26
        -50.46235898  Gyration_radius:  2.41839917646 Dipole_moment: 5.451
 S           0.80581980179879    0.59356712701357    1.21014287524080
O           1.82112766014306    1.28608516216441    0.46286106556152
O           0.87052313946365   -0.85579731060909    1.04265740003375
O          -0.55044559426897    1.07081224823087    0.87920961897909
O           1.04312967672962    0.90071260682244    2.72065615280800
H           0.24791937870861    0.55575489564368    3.16721688522159
H          -0.19181656203895    1.47945982217301   -0.76288789854180
O           0.08081211075453    1.58862557594971   -1.69188531387694
H           0.91195304330816    2.06862880642122   -1.63519028238460
O          -0.45537433276091   -1.97705996170964   -0.78088631293430
H           0.06818952434512   -1.62386446726146    0.02496057052704
H          -1.34914635109387   -1.41002366660398   -0.78213412966062
O           2.96308029450371   -0.69197919878899   -0.90435159605938
H           2.85513965857863   -1.39877777534354   -0.26258127806381
H           2.68831100674697    0.11705475663561   -0.42700598327585
O          -1.51534805684299    0.35222995497453    3.20766361492301
H          -1.37583213239698    0.62785117125845    2.27893655369271
H          -1.95675701778699    1.08032064576225    3.65053237550218
O           0.88439820320529   -0.83158871284056   -2.52662304177196
H           0.10837430332541   -1.59075442027558   -1.61286435853215
H           0.54624919956425    0.08440003012807   -2.40294665402834
H           1.77598779132135   -0.83072950585048   -2.09443331730961
N          -2.42467607322167   -0.36764357406862   -0.72283987269533
H          -2.56459057927740    0.10061769480831   -1.60925303376924
H          -1.96164791550871    0.28812665482393   -0.09264343651099
H          -3.32538017740793   -0.61602855955231   -0.33631060271722
