    26
        -50.44594764  Gyration_radius:  2.64946748359 Dipole_moment: 9.148
 S           0.63737996529796   -0.54320100394788    0.63981664375366
O           1.73328754239627   -0.23358120493001   -0.22693012144763
O           0.03589516433009   -1.82780055341412    0.45188968553420
O          -0.45969746554290    0.55877815338063    0.47990956042605
O           1.02382231292398   -0.38172626196359    2.10795071939923
H           1.48712954948264    0.51406648830212    2.22876281635290
H          -0.79868207540698    0.50598637403699   -0.47797602400445
O          -1.20139200042083    0.35715461438229   -1.94040767526113
H          -1.25308113865234    1.18980744625540   -2.41361886649616
O           0.10113333080837   -3.30945103241770   -1.96634397422571
H          -0.86352965098490   -3.18504260487424   -1.94675800390410
H           0.37110590311876   -3.17882456789368   -1.04893244049216
O           1.99374842807455    1.92975658655425    2.53993129198455
H           1.15391280944933    2.45623464873121    2.42373985559213
H           2.23729052349637    1.98316073257157    3.46688772748788
O          -2.27037222391748   -2.17351296889765   -1.09752184690363
H          -1.65461792957867   -2.12734127055825   -0.35233387331321
H          -2.23904896523128   -1.30530817933279   -1.51384527930133
O           0.88246786696384   -0.87308192631665   -2.70695383252036
H           0.67504921497883   -1.83434510318385   -2.61198580724452
H          -0.39954889194993   -0.14347222670872   -2.33907218764478
H           1.43513916000644   -0.65095496653035   -1.93748481383313
N          -0.40392852143265    3.03231081763950    2.15247849687825
H          -1.06029672729664    3.10046450130897    2.92008370641153
H          -0.69253738797322    2.25740443030227    1.56118371727349
H          -0.47062879294115    3.88251906753694    1.60753052549151
