    26
        -50.45402693  Gyration_radius:  2.47068378644 Dipole_moment: 3.619
 S           0.27714053121921    1.35825936729217   -0.09311380899929
O          -0.93488374799356    1.92966333585164   -0.60525952150947
O           0.99131967444670    0.53948794468400   -1.03817523676868
O          -0.02426440652860    0.52788157606567    1.17130376634402
O           1.16578333410009    2.46733880686462    0.45260389754162
H           1.86900890573657    2.00804788202787    1.04671755967415
H          -0.17300012410153   -0.47481416370664    0.97006545461104
O          -0.43713763619780   -1.91359424861140    0.72227907867236
H          -0.97939267977656   -2.23357634475639    1.44743208342925
O           2.69609334103801    1.13685022076578    1.95728351132014
H           2.76392510710774    0.25239786263798    1.47371116582311
H           2.12721477830031    0.98160256723418    2.71524124077920
O          -0.97010680809161    0.12845318728095   -2.84131454539798
H          -0.11851401410485    0.17610310409929   -2.37644699990118
H          -1.39658843963952    0.96765721714681   -2.64555221943757
O          -3.14344842262056    0.58890989926586    0.12188197298242
H          -2.36049857206897    1.13838709952191   -0.07426494945690
H          -3.90890144129731    1.11999545726057   -0.10439274675817
O          -2.15597279872452   -1.60429692040775   -1.14884115556615
H          -2.69561578405061   -0.92775882071511   -0.69790577758457
H          -1.74658725955343   -1.13503700962288   -1.90635010190030
H          -1.06281285071708   -1.87966059452684   -0.07874052277508
N           2.61727133102989   -1.10569240538935    0.58241778118640
H           2.17135058198018   -0.66068515728929   -0.21872761350117
H           1.97330367868591   -1.81556646627208    0.91150347609908
H           3.45531371185033   -1.57035337666198    0.25664418105716
