    26
        -50.44223881  Gyration_radius:  2.6405812062 Dipole_moment: 5.757
 S          -1.01208422188864   -0.95243353773402    1.11121205540213
O          -1.08248591247264   -0.84802342211334   -0.31161887614357
O          -1.51899578179213    0.15442087693864    1.85823871231048
O           0.46488964589894   -1.20630565324699    1.54887928714461
O          -1.68533668040977   -2.26805910929808    1.54659286100956
H          -1.44790933659509   -2.38771928822573    2.49763815844836
H           1.04610788287729   -0.44411033156008    1.16680948445316
O           1.73967516862336    0.75199313679542    0.61850073611073
H           2.36684620273137    1.13751048153115    1.23396686354708
O           1.32420293340957   -0.85113655341076   -1.71878606955253
H           0.43356658775149   -1.00599407391059   -1.37322436170249
H           1.75391214186783   -0.28937999300733   -1.06419277375645
O          -1.44049326426963    1.61448209660730   -1.66665850524572
H          -0.78791960541051    1.57234581356744   -2.40698568281985
H          -1.55488989363762    0.70115277303165   -1.37515235424762
O          -0.44386117912641   -2.43584331190363    3.83015447458141
H           0.23058251278704   -1.92276111324914    3.36509561467486
H          -0.07474455250010   -3.30608021071783    4.00336641047367
O          -0.29720000165852    2.24149599266338    0.59789980787584
H          -0.87501511042688    1.72716374300001    1.18379052531635
H           0.95721299666769    1.42455814224646    0.54968860143498
H          -0.73028995726831    2.17509142523812   -0.29849766279626
N           0.45652053258833    1.21107517937563   -3.57487902166360
H           1.17955222970169    1.89893144239507   -3.74181366080582
H           0.11384130606482    0.89643614010320   -4.47340242522778
H           0.88431535643343    0.41118933493736   -3.10662223886585
