    26
        -50.44223876  Gyration_radius:  2.64059176384 Dipole_moment: 5.758
 S          -1.53516642599843   -0.89248637779852    0.11284928952465
O          -1.43770713619909   -1.54401493592670   -1.15453164133648
O          -1.30529553491700    0.51720983605954    0.12525885853307
O          -0.55477687940615   -1.59528602974148    1.10393988543929
O          -2.89429227248572   -1.18028323259832    0.77917550812937
H          -2.92236594636947   -2.15779539568999    0.91622292119086
H           0.40795794259277   -1.33653236162957    0.83746765116145
O           1.73391409346578   -0.94037266847423    0.29236300396677
H           2.36039823425905   -1.66667024491675    0.26459221223128
O          -2.35050422295535   -3.65457472133908    1.38415336679222
H          -2.57215459744785   -3.88771823041311    2.28972853918215
H          -1.44038646813036   -3.32885514149452    1.38355585902056
O           0.86314866617683    1.45113767894398    1.60756208429863
H           0.00034278498736    1.27908258934173    1.20427326686470
H           1.42436909924636    0.72170110832243    1.32173983521642
O           0.01599558249680    1.88933518156105   -1.97241496227973
H           0.63786920899895    2.49536768637782   -1.50141467176685
H          -0.64058997353906    1.63420373134995   -1.31207500620873
O           0.93377204321460   -0.55551845646144   -2.06987032301120
H           1.49327286038870   -0.73351256348895   -0.69167589615463
H           0.08166449543173   -1.01777394555685   -2.02545219190971
H           0.68906721192469    0.40651525992826   -2.17017918506208
N           1.62585873023150    3.41421951805367   -0.39625100683038
H           1.44446403370739    2.88284937342460    0.45633797302735
H           1.31464448681291    4.36431397930186   -0.24077884563319
H           2.62649998366038    3.43545836264055   -0.54457653462540
