    26
        -50.45831361  Gyration_radius:  2.48011419594 Dipole_moment: 5.156
 S           0.04649679967329    0.43815828230599   -1.87515824078187
O          -0.89080653968555    1.47638501272485   -1.56247494079556
O          -0.52888290495000   -0.89930443143891   -1.94390270141697
O           1.22760466773842    0.42228740850376   -0.99886838255408
O           0.60958972456131    0.75372496244309   -3.32154859727916
H           1.18135477775817    0.01903027653901   -3.52130964729048
H           1.38288773419498   -0.55443293010387    0.16736765052349
O           1.33489772688917   -1.21960000074130    0.93306289527282
H           0.85840060534324   -2.06846286355099    0.51042435471994
O           0.80864650272790    2.89594113397475   -0.06695221106179
H           1.30231791194721    2.09766276245010   -0.31355167211282
H           0.00829776777810    2.81459674696205   -0.60815466187522
O          -2.11184250830786   -0.31302907771031    0.13237295577365
H          -1.63175850006492   -0.63116658212889   -0.65372595926409
H          -2.31447342215841    0.60325620360404   -0.08153339114121
O          -0.00278786796009    2.30775049223254    2.39145026870593
H           0.27519157070029    2.59390232266502    1.48577455141119
H           0.64144246493241    2.67478222782042    2.99764499832023
O          -0.51902849471480   -0.27600300047077    2.26507049685972
H          -0.35407345329104    0.68926915981735    2.40782449469531
H          -1.22830596286103   -0.32196194851415    1.58072598245330
H           0.57841436753815   -0.80551474142800    1.60249172993930
N           0.00703053955863   -3.05227369127780   -0.22343975437930
H          -0.83737747316351   -3.27953859043045    0.28662105931806
H           0.41260730327092   -3.90837946305259   -0.57706350170483
H          -0.25584330699711   -2.45707967133213   -1.01314776641281
