    26
        -50.45831338  Gyration_radius:  2.47984510749 Dipole_moment: 5.157
 S           1.40246349623327   -1.30695641790422   -0.18160790180146
O           1.25624113640913   -1.13059136459285   -1.59646529671545
O           0.37040561579963   -2.12938569580461    0.43724472534168
O           1.54002724048909   -0.04576371867753    0.56247564854494
O           2.77239054756495   -2.06943994134726    0.04305672682609
H           2.81591342014733   -2.21111788189971    0.98356725766707
H           0.37932345213065    0.59905464744978    1.32073115151414
O          -0.48116633131318    0.94118689730868    1.73735471406067
H          -0.97071854168696    0.06413244856542    2.08018168727110
O          -1.46072225108703   -1.03451973496929   -1.17778973525371
H          -0.88912228331830   -1.54263318408082   -0.57375865221229
H          -0.93667050923745   -0.96742662381557   -1.98238192981313
O           2.11515920561742    1.39852069047452   -1.61646257064547
H           1.93775123795956    0.55010902321839   -2.05124162547162
H           2.10315988458127    1.15197317599709   -0.67804115588941
O          -0.15938748967549    2.74444857875492   -1.86653312474284
H           0.70532366103809    2.26400316098555   -1.84003271328806
H           0.04561115118595    3.67237965324539   -1.74762765174291
O          -1.81701879223096    1.44556972490436   -0.27824101323105
H          -1.27142923234659    1.99249726685185   -0.89674779715425
H          -1.83423509789431    0.54147561983314   -0.67305585375781
H          -1.08612726685068    1.25740147191232    0.88518887928406
N          -1.56176332365487   -1.29088499869838    2.29336362314175
H          -0.90339134486149   -1.82820923146232    1.72344923363157
H          -2.47777753383594   -1.37690273594188    1.87105907149978
H          -1.59424006113527   -1.68892082030891    3.22231431294893
