    26
        -50.45831350  Gyration_radius:  2.47990762116 Dipole_moment: 5.153
 S           0.88086538845583    0.50818111449443   -1.63526479079223
O           2.04244001139734    0.25475725734323   -0.79206704844940
O           0.27859629604010    1.79554931505856   -1.45026102726226
O          -0.06566661175303   -0.61166556877676   -1.52032629751497
O           1.39852390549474    0.45863545336518   -3.13137109711522
H           1.83328428257984   -0.38517301649014   -3.20626091516123
H          -0.18964142459646   -1.46481902956760   -0.25764007941107
O          -0.20411341848500   -1.91595644186909    0.65198541178771
H           0.81309728120075   -1.92427281807794    0.95438283297887
O           0.84513208086184    1.53587698837747    1.22919131257992
H           0.41709743857011    2.24143920040488    0.73383756794848
H           1.40523565727128    1.09584861045950    0.56406369270765
O          -2.22976906843955    0.94165869751351   -1.78509686781017
H          -1.55387984142459    1.63706494271037   -1.77897766128080
H          -1.69096199209442    0.13579566540523   -1.82719076880315
O          -3.12200731960990    0.88419651286030    0.71462130667744
H          -2.83439258197724    0.96051425571714   -0.22918099501224
H          -3.98164448242330    0.46231353491215    0.69965737171657
O          -1.08288320434999   -0.09522245291985    2.07136063620148
H          -0.37387219951630    0.57150643349772    1.90927861667127
H          -1.89625206678581    0.27810018343843    1.64900742643364
H          -0.66329977112955   -1.17743393477862    1.31191919912920
N           2.24887465780736   -1.64903339927008    1.26110358259205
H           2.43201306343389   -0.97789670320033    0.51078227926886
H           2.92992564617341   -2.39466174535887    1.20944829266320
H           2.36329829336278   -1.16530305531796    2.14299799932707
