    26
        -50.44594807  Gyration_radius:  2.64921157884 Dipole_moment: 9.146
 S          -0.53434201607471   -0.90805281912661   -0.03258148895340
O           0.69366541605658   -1.60566849145539   -0.26358842032865
O          -1.31529717793766   -0.61633117629923   -1.19553498863202
O          -0.22313233612363    0.42768128963795    0.71717679846966
O          -1.40736574231478   -1.63653634800773    0.98625502577044
H          -0.83890435124186   -1.87381523894751    1.79387782416169
H           0.34406749957788    0.99630240192744    0.09222281087552
O           1.21488271144765    1.74093453267102   -0.91211584624811
H           2.00535600731952    2.12404209132231   -0.52696881040040
O          -0.28069454696569   -0.36579263400450   -3.82335869267683
H          -0.58552601377700    0.55474838745479   -3.74609839161109
H          -0.79877645995216   -0.83866895433744   -3.16025398915711
O          -1.19536226247746    1.87321934858222   -2.47231022260162
H          -1.50098152913047    1.10423538661372   -1.97049972161052
H          -0.39752426324697    2.17478861002547   -2.02444191288548
O          -0.11555611451143   -2.07308833696782    3.13348319196756
H          -0.69018567960805   -2.54996863460462    3.73669994612490
H          -0.06421728605663   -1.13023698049841    3.45682387440229
O           1.89356092595446   -0.28232815049728   -2.28671175873061
H           1.53900617044193    0.98477659335277   -1.52511163227184
H           1.64138851629215   -0.95506124165215   -1.63042743766660
H           1.22134717217065   -0.35396178732948   -3.00718062618316
N          -0.14339238587261    0.53308199034861    3.70065074154665
H          -0.93861939575308    0.93606014051467    4.18027633120515
H          -0.21821424730671    0.77135929177499    2.71522504963987
H           0.69481737909307    0.96828070954419    4.06449234576383
