    26
        -50.46185108  Gyration_radius:  2.40099762986 Dipole_moment: 4.307
 S           1.22993486660913    0.69323609361227    1.15054679685307
O           1.19151698924319    1.63183168929103    0.03692922078143
O           1.87218906999274   -0.55207151493517    0.80999449399060
O          -0.10377629643486    0.51026919693473    1.71761792379623
O           2.09651532601390    1.36661888887009    2.28363875377905
H           1.58624550645711    2.14518531520557    2.47695693777695
H          -1.26567713441503    0.37280844950245    0.52588437315974
O          -1.84535266373466    0.20866322226029   -0.25118836681651
H          -1.73373699332102    1.01809300760286   -0.82063237326977
O           1.54948621560520   -0.09974317567145   -1.89505872706057
H           1.44211269124761    0.63045111166576   -1.24150367256792
H           2.26998711239690   -0.62903690738714   -1.53989141352352
O           0.41245214753534   -2.72358461643360    0.47821557187911
H           1.09683315727666   -2.04895182894335    0.68426990149023
H          -0.25680303548410   -2.62089094154084    1.19437255391385
O          -1.33961801147866   -1.81293441450078    2.25520011673397
H          -0.87179646548539   -0.95563340620230    2.25065703329321
H          -2.21552570619200   -1.63463895119687    1.90508166626854
O          -0.54020976220341   -1.52518102404792   -1.48219566173092
H           0.26953173846206   -0.97894236555947   -1.78018347339145
H          -0.16751360277611   -2.15026199871189   -0.69149907644972
H          -1.18303664869667   -0.82596243548525   -0.99974862358381
N          -1.04915671287013    2.30709884437545   -1.67286432749963
H          -1.46636856686926    3.22831001398829   -1.64343813601267
H          -0.78461499035985    2.11554742005329   -2.63110839519105
H          -0.19361822050233    2.32972030727069   -1.12005308662200
