    26
        -50.46215562  Gyration_radius:  2.39730882086 Dipole_moment: 4.884
 S          -0.54773449493727    1.50738345769404   -0.25258803644649
O           0.53573900684654    2.45037239194307   -0.36001750691503
O          -0.51330333829484    0.81537278162114    1.06070817095761
O          -0.52749668218926    0.50115170359639   -1.31397342571520
O          -1.89285406140468    2.25775226457240   -0.31999677515505
H          -2.55788621788252    1.50627524999463   -0.39096723374859
H           0.84711471113483   -0.23496615096109   -1.54432466632456
O           1.72592726814446   -0.70060916714616   -1.62344692833750
H           1.81456360383334   -0.94329389698650   -2.54601061324288
O          -1.25109878863114   -1.69413369202681    1.12302746567929
H          -1.06400293850232   -0.72706078082336    1.05416348153949
H          -1.42838846167020   -1.86242077810930    2.05060726236932
O           2.86067010987368    1.27278346053934   -0.11435089015814
H           2.73674618274137    0.58627005068825   -0.79507240510394
H           2.11297154269311    1.90267332683626   -0.25260006177180
O           1.77556569057303    0.10061084467193    1.80315267574779
H           0.83129002422331    0.48054206227319    1.62535797050603
H           2.37345395928885    0.61684009754516    1.09168021592652
O           1.37338410115376   -2.10960512178332    0.67284508112432
H           1.55510524774922   -1.81240304672391   -0.23910254533890
H           1.70469294424130   -0.88552183857149    1.43770545964771
H           0.39458857373209   -2.15485872933389    0.75419214958923
N          -3.19951816609222    0.03608391195771   -0.64771928711513
H          -3.28746845258635   -0.59813218310270    0.13637461060382
H          -2.36475458643708   -0.23112374815286   -1.16401576453342
H          -4.00730676760279   -0.07998246020554   -1.24562841378675
