    26
        -50.45514387  Gyration_radius:  2.42735854611 Dipole_moment: 4.708
 S           0.21593559294313    1.60245590529262   -0.11063825847341
O           1.17616370191534    0.52470158225379    0.03308027899166
O           0.04548979930374    2.40248602957336    1.05810453931150
O          -1.14573963756452    0.97036174571949   -0.51611432596391
O           0.56304930621655    2.43333252164217   -1.32276912911207
H           0.92182391786291    1.73802974403105   -2.02665760597008
H          -1.49586126778889    0.39713467834425    0.23837579913618
O          -1.91978163566536   -0.46356252356543    1.46160747402999
H          -2.83059669675367   -0.29970130314508    1.71378777946675
O           0.04330364405547   -1.95331170434772    0.01490520029511
H           0.53580316121866   -1.11579268178637    0.00191478248352
H          -0.73131942321978   -1.78748630790658    0.56422851838483
O           1.79179069917418   -0.73375050106266    2.38303525391540
H           1.80681278829516   -0.20892513844134    1.56629026848922
H           1.58590073799601   -1.63288524195620    2.11199446502657
O           1.41864486443840    0.59957611392518   -2.76990579855805
H           2.02424194202082    0.21430164358768   -2.12863982417794
H           0.64132897681278   -0.05375927745514   -2.83381621172326
O          -0.37071426531478    0.69579951094908    3.13108906281630
H          -1.34757771868110   -0.06359034141776    2.20098740128570
H           0.46092471878454    0.17739828907501    3.11033036161408
H          -0.19085356324106    1.49385733152341    2.60489730743279
N          -0.58887144861192   -1.08130057234938   -2.68845877314935
H          -1.39828176242489   -0.50892449856626   -2.48245828444005
H          -0.39574736006136   -1.64560026265965   -1.86007757769962
H          -0.81586907169778   -1.70084474118530   -3.45509268335554
