    26
        -50.45514393  Gyration_radius:  2.42743910446 Dipole_moment: 4.705
 S           1.52094271869569    0.54622464769381    0.11511048332703
O           0.96472479074208   -0.55277532000473   -0.65100275590849
O           2.31256268970556    0.14722739322946    1.23280737962867
O           0.33700440016089    1.42993023696742    0.60037660484698
O           2.26827532459743    1.48039249414881   -0.80630970757328
H           1.70543564023046    1.48174664124995   -1.69551631181842
H          -0.23356635604309    0.91049562512637    1.25233804017401
O          -1.03770845936739    0.00534346629395    2.22743614777679
H          -1.23736936674070    0.45685112648083    3.04982736902225
O           0.36949301603735   -3.02739484196302    0.35205405538416
H          -0.55923483610436   -3.05294569187704    0.10510681798482
H           0.75024039568084   -2.27572596113345   -0.13052393978699
O          -1.74240486548042   -0.77279641494837   -0.43064793884793
H          -1.84735218755994   -0.60975888867741    0.51364823441631
H          -0.78436035913385   -0.75297890246792   -0.59171408704584
O           0.79516409996863    1.25777177426622   -2.79874165577380
H           0.77621297186488    0.29588340808533   -2.82627037166985
H          -0.12425998177838    1.53653362314701   -2.46400196929618
O           0.85175607790193   -1.66718612186065    2.63182188334931
H           1.58242991879433   -1.11497037895926    2.30430154571065
H          -0.35042783445821   -0.70763726512308    2.45860262411792
H           0.72668272686771   -2.36260727893606    1.95246269515951
N          -1.54383640531078    1.81035444454206   -1.75649877442581
H          -1.87302858299196    0.90722309984781   -1.41311137319580
H          -2.28910890839261    2.24633511307495   -2.28335565658428
H          -1.33826661787021    2.38446395179403   -0.94819934899114
