    26
        -50.45212630  Gyration_radius:  2.45400239724 Dipole_moment: 7.626
 S          -1.03042792397201    0.46851987341233   -1.43378293992649
O           0.33736840258085    0.67343015417173   -0.97762949187932
O          -1.85240110003492    1.63401025179365   -1.30743268572698
O          -1.61339774104539   -0.68982903151726   -0.51122776256828
O          -1.05573532394517   -0.17122537542674   -2.76089535141261
H          -0.55058506859216   -1.40811152243480   -2.50546222099379
H          -1.60279317092873   -0.34936111143125    0.42370687607399
O          -1.46926955622192    0.29389018091830    1.88862712868523
H          -2.31258024556227    0.39600151276493    2.33264970862627
O           1.89258722091028    2.06716277728608    1.49969867254252
H           2.05848686132103    2.52087137101642    2.32778054833528
H           1.73943165396529    1.12644403977235    1.73109447620564
O           1.21992390109863   -0.49375801065376    2.13860453692292
H           1.39042396971124   -0.96997955461712    1.31444730431236
H           0.26406881202529   -0.34510909038908    2.17144243744465
O           1.72961686190909   -1.37868084415721   -0.52868826374477
H           2.64220805171340   -1.16198068121282   -0.72895170574577
H           1.21840840931820   -0.51551793066784   -0.66587459014180
O          -0.74127267005958    2.56561261815411    0.98511282927350
H           0.23517357660962    2.48105616358135    0.94386562579137
H          -1.07552078191350    2.43289992877107    0.08035763733329
H          -1.18263511753375    1.23322719621979    1.61172050262107
N          -0.14381052675223   -2.41005834017015   -2.11780890157498
H           0.07632385704295   -3.05746083522222   -2.86713696280286
H          -0.87140343951070   -2.77539769111553   -1.50868515557525
H           0.69781109787414   -2.16665603884890   -1.53553226208956
