    26
        -50.45831382  Gyration_radius:  2.47983318528 Dipole_moment: 5.159
 S           1.67222423156368    0.83605912473690   -0.45775096622030
O           1.60548666166863    1.16621881190782    0.96040759084248
O           0.90269955443518    1.69617983829317   -1.30779930027901
O           1.38540443975980   -0.59401693735604   -0.64533206844120
O           3.18758212401734    1.01297798423756   -0.88327345262237
H           3.67456784934258    0.47937432377490   -0.26301415708531
H           0.48231192851349   -1.38875437743048    0.29864297000747
O          -0.17187312110151   -1.78106320164806    0.96878833885623
H           0.08088673274828   -1.31006231021814    1.88532912431233
O          -0.98686959906230    1.77077966125043    0.68903845711541
H          -0.95793715341834    2.18625594937519   -0.17873431892543
H          -0.04741246029988    1.63302243369438    0.90852438911749
O          -2.35643559542251   -0.66331133852608   -2.24685132599191
H          -2.66523708334676   -1.43643895431929   -2.72029169231774
H          -1.44626883750531   -0.47587613981692   -2.58711615735570
O           0.15435938188312   -0.23401304412795   -2.99519567607510
H           0.65463524826934   -0.69682615816759   -2.30459239428012
H           0.31166233038253    0.69618079876636   -2.77057729179361
O          -2.23784323341907   -0.55891210418622    0.38647732182481
H          -2.38012011974645   -0.61451698610993   -0.59118336406467
H          -1.13121127617014   -1.33172609703791    0.70371743513958
H          -1.91665566225536    0.35924573510262    0.55266979825552
N           0.46736474365592   -0.39252652886681    2.99949514000743
H           1.03249023984387   -0.73522575842660    3.76480375545272
H          -0.33030535946055    0.10082009124576    3.38051195308514
H           1.01649402510975    0.27615520388397    2.45330587142780
