    26
        -50.46185104  Gyration_radius:  2.40109708398 Dipole_moment: 4.309
 S           1.31707947333165    1.02892164676132    0.72201798659448
O           1.78308406186308   -0.34167830013630    0.88605700562264
O           0.22476365986509    1.35714335138002    1.60427690507434
O           1.02073150781409    1.30896308294086   -0.68062987516653
O           2.52310865277742    1.96932257427414    1.10864030304205
H           3.17284041287199    1.72355387207338    0.45952246495085
H           0.20995657517726    0.04024142738183   -1.40354779389711
O          -0.34280737619376   -0.71832425405123   -1.69638995298928
H           0.22771101987873   -1.51867930837449   -1.53605142441066
O          -0.35933618630027   -1.30568627737931    2.04302981176394
H          -0.54568834204738   -0.61923471277973    2.69078564719490
H           0.50022843267190   -1.03359203078229    1.64426792091420
O          -2.21509148649364    1.58614597597463    0.62905727507107
H          -1.36639591471103    1.65841231316729    1.11942388576463
H          -2.04067412545777    2.03566338582947   -0.23051220090976
O          -1.20787197359608    2.42483612319829   -1.68154517187944
H          -0.31696520457365    2.18855827687355   -1.35860932724118
H          -1.37636664287332    1.84767373015383   -2.42991586530437
O          -2.02028335022633   -0.84621540902481    0.14645381521407
H          -2.23063905837501    0.18766952288039    0.34991850163766
H          -1.37695133530844   -0.83350914114405   -0.70214790315074
H          -1.42856481049012   -1.14505911006760    0.92355150659052
N           1.27979337505453   -2.63062862010485   -0.81895792364035
H           2.02776530594311   -3.05406486268759   -1.35264449907872
H           0.84818149902739   -3.35509949962930   -0.25884580365232
H           1.69239185036599   -1.95533375673065   -0.17720530811173
