    26
        -50.46336790  Gyration_radius:  2.48590193421 Dipole_moment: 5.654
 S           1.77121927850344    0.19574433147973    0.61207235661133
O           1.60147382579883    1.61052777357919    0.82392923754942
O           2.15747964153165   -0.15787806193368   -0.73444364198846
O           0.54478365320511   -0.55715113865323    0.99517515876374
O           2.88910556259246   -0.28958714682334    1.59962067182141
H           2.88480471988975   -1.25767792512175    1.51060125705681
H          -0.07866019213368   -1.13181160121587   -0.42720756731728
O          -0.44954279794237   -1.47662938253213   -1.27197470757739
H           0.24477764353759   -2.02973552106782   -1.63566877738331
O          -0.76074204032799    1.59847480212108    1.84525834473504
H           0.14847981029849    1.92224326462775    1.65680672949364
H          -0.60957322010892    0.63856928478839    1.82021198761962
O          -2.94658909946532   -0.46849810112977   -1.00281740790789
H          -3.32831821377718   -0.92493766373674   -0.25110645323025
H          -2.12609509997021   -0.94850525057805   -1.22211882370601
O           1.89267962500610   -2.78031829208492    1.41252765185235
H           1.69551436146836   -3.16386366614428    2.26952527150521
H           1.21766723360374   -2.09028180014764    1.25163417047622
O           0.32591409297762    1.06171583655390   -2.15888184939279
H          -0.06913788194793    0.20644529844775   -2.38152234166436
H          -0.78612967312869    1.67723104536551   -1.21697231923506
H           1.13885918788110    0.80784447046237   -1.66656340054972
N          -1.64570688972445    1.86975398743368   -0.61203435660863
H          -2.30712690166817    1.07835490654849   -0.77654971984906
H          -2.06346476966848    2.76089989665329   -0.85538322493344
H          -1.34167185678724    1.84907066348009    0.41588176460731
