    26
        -50.46336786  Gyration_radius:  2.48589738597 Dipole_moment: 5.656
 S           1.83120736950326    0.35356984744387    0.26836189701258
O           2.20594836657152   -0.97594422585458   -0.14069208882817
O           1.48991704357744    0.46703285276476    1.66766079938674
O           0.71308763778565    0.87809884761280   -0.56378951373386
O           3.05313372920554    1.29114668118548   -0.02879305594244
H           2.71705818694237    2.18656963670414    0.14570685789029
H          -0.59104370251414    0.95618955171983    0.45388754933240
O          -1.36708736960399    1.00581075478501    1.05831112196884
H          -1.09403350414399    1.60285397614247    1.75780617125673
O           1.36322537785125    3.38258962190037   -0.07618763472565
H           1.43674257207380    3.89723921528941   -0.88251915305428
H           0.92876707198836    2.54011954631385   -0.31950464241589
O           0.60931732295214   -1.26268307346039   -2.13870045908838
H           0.43570871913512   -0.32528358493195   -1.94885593866033
H           1.40668991498207   -1.40767020658267   -1.58176266938143
O          -3.08333143546822   -0.44921297811150   -0.44548724928137
H          -3.23445661952371    0.06936345503921   -1.23754144726517
H          -2.61962728644394    0.13987372222409    0.17878852204082
O          -0.30177629678278   -1.42667696080536    1.94134482472963
H          -0.99337496808041   -0.75645081741486    2.03955981182400
H          -0.67109974159420   -2.04425878659691    0.53234032194513
H           0.52253293764512   -0.89051817706523    1.91370919076633
N          -1.09448499601763   -2.28116326153579   -0.41973258686934
H          -0.41012641247241   -1.95791048875199   -1.17910680804867
H          -1.97009304337682   -1.71791204570563   -0.50320277251010
H          -1.28280087424499   -3.27477313226441   -0.49160104838004
