    26
        -50.46336787  Gyration_radius:  2.48602703225 Dipole_moment: 5.656
 S          -1.81991238031084   -0.46209292522210    0.15911851869660
O          -1.57339191727352   -1.35892929592837   -0.94645943597665
O          -2.24731658656261    0.85586510525767   -0.23552816742051
O          -0.61421598428311   -0.39873782477186    1.03092200601816
O          -2.95588031636533   -1.06850607969609    1.05475343635545
H          -2.57742215420541   -1.89688392772021    1.39491827511258
H           0.61594720325384   -1.03632169060999    0.12437187908188
O           1.34815548326490   -1.41794162404367   -0.41261602409270
H           1.06349566045357   -2.31185273926017   -0.61317219664612
O          -1.13869733811129   -2.73182934442100    2.13341370597840
H          -1.12185100900150   -2.68724382144854    3.09164202705979
H          -0.74165427592457   -1.89915695975127    1.80669902176866
O          -0.53205020766034    2.25956063770570    1.07227641882734
H          -1.37486833308869    2.04748731441906    0.61202974712294
H          -0.31331642874442    1.38686560313322    1.44023336957161
O           3.07303394284963    0.65527927284540   -0.18934838150881
H           3.31343379290106    0.69119135819180    0.73806160838688
H           2.60353626531479   -0.19072372587674   -0.31423999071977
O           0.07101391576161    0.04666785959330   -2.42657198737794
H           0.79490797274320   -0.55005250324504   -2.18777672065428
H          -0.71349504363044   -0.38353944158442   -2.01762191284119
H           0.50090542439634    1.36816379901269   -1.67051387250758
N           0.97574736417203    2.11581607245239   -1.07267704307169
H           1.10523955796760    2.97031468410881   -1.60270666334338
H           1.88903582967221    1.71323403054053   -0.76486923135397
H           0.36961956234263    2.28336617628627   -0.20433837642521
