    26
        -50.45596421  Gyration_radius:  2.43493464528 Dipole_moment: 2.390
 S           0.09298756055626   -0.47881793221613    1.49365697151986
O          -0.96858869266537    0.05926103861753    0.66982861633475
O           0.80536324296014    0.48777566900519    2.26251299540482
O           1.08057881391224   -1.23977204090973    0.56223891609613
O          -0.45168304965551   -1.59462188469336    2.36292301306597
H          -1.13373670750050   -2.08731245624974    1.75815211972982
H           1.51818274184336   -0.58573536829273   -0.08253439268150
O           2.10053542724811    0.47336792297502   -1.02034916295432
H           3.04924738068326    0.37363913936786   -1.12228740490240
O          -2.05696369904313   -2.55108439994530    0.69085958639018
H          -2.47741653596871   -1.72963040475736    0.41726027184743
H          -1.48579951626947   -2.83104462671111   -0.07853585334452
O          -0.35773148805324   -2.89788707409305   -1.27787327320555
H           0.46897399258025   -2.83933668781381   -0.78949917906424
H          -0.45470415284932   -2.03318437426727   -1.73407513059994
O          -0.48005598127357   -0.29353606818416   -1.96817747800219
H          -0.77268527097459   -0.07089887349754   -1.06756358260481
H           0.41414167768205    0.05926656296095   -2.04079231195735
O           1.64636813800914    2.42731798568990    0.54423632739543
H           0.76488082732871    2.77838377230304    0.26217502669700
H           1.46202837001331    1.90723991907190    1.34452465663013
H           1.96223519113063    1.32014060632091   -0.46547152121376
N          -0.91495531067601    2.88629763603495   -0.14748284014477
H          -1.16555301232126    1.96484611236539    0.20300535434262
H          -1.17407482059564    2.92501386947977   -1.12534203863666
H          -1.47157514609741    3.57031195741546    0.34861032383132
