    26
        -50.45060546  Gyration_radius:  2.45331187779 Dipole_moment: 6.058
 S          -0.30797639561519    0.98470170269031   -1.64028886702421
O          -0.16716045534618    1.11650923930547   -0.21257305270382
O          -1.48112921615180    1.58443847437521   -2.19384108738088
O          -0.27784871252433   -0.52872159126842   -1.99880113424539
O           0.94866646699143    1.51534709038203   -2.31688008262525
H           1.74087253776719    1.22734564971541   -1.65812185439881
H          -0.47123313528182   -1.11470910400445   -1.20804569689227
O          -0.74334781062834   -2.10645073937421   -0.01806155615079
H          -1.32340748590781   -2.80733804401440   -0.32008139543080
O           0.37125808801085    0.42134209144068    2.31456234104492
H           0.20937233056183    0.87178578354788    1.46955771359936
H           0.98751729718635   -0.28776573002024    2.09184343066263
O           1.80808600235617   -1.59233806745686    0.82273415774209
H           2.21579130202480   -2.41381987188921    1.10181450896489
H           0.91899292499997   -1.82140257885184    0.49599529351283
O          -3.08517010502655    1.16180308751532   -0.04927185785335
H          -2.59904239495879    1.29324705121310   -0.88281668428730
H          -3.08979250338391    2.01778214369759    0.38376764439551
O          -2.02168557834869   -0.69240369292301    1.64411934529240
H          -1.28586031298952   -1.56131274473232    0.66981800803633
H          -1.27737283991575   -0.23334259618033    2.08699933993979
H          -2.46086611744033   -0.02326198787462    1.07914560615949
N           2.69543704881949    0.81149427716976   -0.61939140380221
H           3.65301734505310    0.73174655936177   -0.93605861171769
H           2.40139464057807   -0.07368072036652   -0.20840764806309
H           2.64148704919383    1.51900432856113    0.10228354322487
