    26
        -50.45596419  Gyration_radius:  2.4349222126 Dipole_moment: 2.388
 S           0.20231941937031   -1.12671458578610   -1.07662622327571
O          -1.01947174970468   -1.34157063580166   -1.77945945180983
O           0.08269657695890   -1.11845118392187    0.36588765696453
O           0.82601230942245    0.23119151726958   -1.51136721419900
O           1.27013430829167   -2.11798869120823   -1.49425737579203
H           2.00629918362218   -2.02883405190191   -0.77055139231354
H           0.19134831490698    0.99140114480310   -1.27848991072617
O          -0.82117876602985    2.06189612855950   -0.86699151335574
H          -0.94812904710888    2.71440014248863   -1.55873602263699
O           2.84697539174954   -1.71491700802354    0.41328570060040
H           3.09019068064255   -0.74928746943612    0.34281122781032
H           2.21004394478073   -1.77082602622662    1.13276395816683
O           3.05657152499353    0.88820179272592    0.16120092111393
H           2.71763621855214    0.99156418074097   -0.73311978014718
H           2.32529912385981    1.17100004456835    0.75324288801633
O           0.70578665971069    1.29498496911576    1.41915877469408
H           0.15553176324066    1.87904253883321    0.88489727435376
H           0.42703878021530    0.39282483631109    1.18521054282220
O          -2.81694103263451    0.48424705684684   -0.85368133352010
H          -2.88725521537745    0.17227131349028    0.08310313817622
H          -1.68165061894180    1.51187312845155   -0.83432069675775
H          -2.39797738778033   -0.25234736766098   -1.32993947174403
N          -2.50481424391249   -0.50897554949680    1.62937092066107
H          -2.32466552659660    0.11750757457065    2.40393663359152
H          -1.61607139347675   -0.91459405514330    1.34601884313580
H          -3.09572920876455   -1.25789973417721    1.96665191609124
