    26
        -50.46892616  Gyration_radius:  2.48074407474 Dipole_moment: 4.918
 S          -0.85132281086244    1.24263107703704   -1.58030867189553
O          -1.56609364441063   -0.00740828935359   -1.80537874733851
O           0.53032657990705    1.00090435086442   -1.20037927138182
O          -1.55758082017667    2.13396699178377   -0.68643869040676
O          -0.79190417192061    1.98783323354802   -2.97772522378498
H          -1.63375696739667    2.42984554074395   -2.97539833682678
H          -1.51224919080668    1.54282638917489    0.81789860008815
O          -1.43535972522522    1.18437671759409    1.73571130293603
H          -2.16022939106786    1.56620747172952    2.23300641732993
O           1.30744579836467    1.68556181411551    1.32011267430892
H           1.12238542378000    1.59671178695577    0.36974131560227
H           0.43658572398704    1.69819934731476    1.73924409442710
O           1.93165285413186   -1.20884272614575   -1.15719203094102
H           2.65619215507445   -1.14859003938331   -1.78079664020089
H           1.45703467366562   -0.34290690548134   -1.20151711334297
O           1.99063824200661   -0.88385614018201    1.68007253728602
H           1.90489660050504    0.09580127088132    1.67559297129917
H           2.18299863720347   -1.11994299828052    0.76274692379455
O          -0.57598843135803   -1.41079169036968    1.91493210998703
H          -0.64747550595663   -1.86115119288217    0.49367985106093
H           0.40648537206993   -1.28434851016618    2.00139390816484
H          -0.94971756222441   -0.51081730305881    1.94368784557548
N          -0.58446592228609   -2.07879974524919   -0.57639369376118
H          -1.04526878494559   -1.27318329685793   -1.09599588271485
H          -1.02702933865056   -2.96110062012200   -0.80657648294708
H           0.41180020658399   -2.07312653420703   -0.84371978631512
