    26
        -50.46892603  Gyration_radius:  2.48058069661 Dipole_moment: 4.920
 S           1.12438053869882    1.09154234475301   -1.51925598430104
O           0.61662952551079    1.51469723662644   -0.22511121991028
O           0.07157150214680    0.49957314551539   -2.33479990637705
O           2.30334183050031    0.25711218398977   -1.44187852247136
O           1.57927674674941    2.41696180530054   -2.25967651402996
H           2.21162939350839    2.06413157400895   -2.87590172149213
H           1.98582930683488   -1.04807961961879   -0.54168938499190
O           1.78220392422756   -1.81562762653699    0.04668552753769
H           2.41098314369705   -2.50164445067924   -0.18262268539742
O          -1.83045490541443    1.64395679725192    0.69318849172063
H          -2.06010594773382    2.55395799828412    0.88463678227323
H          -0.89468656143031    1.65688549417645    0.37499590587090
O           1.51109434239500    0.20705098175558    1.99176817148185
H           1.81038882084084   -0.60750493035927    1.56617329126137
H           1.30883307454194    0.80985291399244    1.25620721377556
O          -1.04632054158889   -0.41780507142610    2.50878805804606
H          -1.47659526782917    0.33152003588026    2.07569506671395
H          -0.09166136673391   -0.18266158380870    2.52994874740541
O          -0.87424333869569   -2.20892466217331    0.58976321187561
H          -0.98169742401969   -1.68089891978603    1.42543627727250
H          -1.53007523282562   -1.28224014034363   -0.37928395702987
H           0.08128834378269   -2.18586746102515    0.39780628820960
N          -1.93666855179464   -0.48327404991847   -1.00596374037953
H          -2.70788584074514   -0.80973527010300   -1.57687825957653
H          -1.14332122671285   -0.11384663332649   -1.61047841458909
H          -2.22373430790980    0.29086788758359   -0.38755275289923
