    26
        -50.45596420  Gyration_radius:  2.43495147999 Dipole_moment: 2.388
 S           1.04426874744320    1.14407042315327    0.26482113342690
O           1.02331920099943   -0.02651799205249   -0.58630216048198
O           1.65389543009233    0.94948545696290    1.53894713800837
O          -0.42434571599233    1.62308193153674    0.45349366103156
O           1.66699730645125    2.30679071106498   -0.48195660873001
H           1.32721281247978    2.20362304715813   -1.45534722547770
H          -0.95608440949495    0.91321032724562    0.95188191197519
O          -1.67070210955433   -0.22411348415763    1.68395666006103
H          -2.22608494133916    0.10498133179083    2.39363587075716
O           0.72520637371198    1.77696836869388   -2.74475533178952
H          -0.26499492277046    1.81082449561541   -2.62270053510235
H           0.95182357178261    0.84194309315233   -2.77317394410709
O          -1.80289391557289    1.63581016512383   -2.05717202660205
H          -1.76384593115770    2.08318671873387   -1.20646659888069
H          -1.86395191952209    0.67798066714456   -1.84731561079154
O          -1.49947749907949   -0.86445937188659   -1.09218639521844
H          -0.54777370591147   -0.70112673091387   -0.97434861581631
H          -1.86355183226723   -0.90811593442800   -0.20062689544872
O           0.44931981208350   -1.20508380116760    2.69159355636590
H          -0.88117052948328   -0.69059644732450    2.13457427919375
H           0.73446743363058   -1.90407013915700    2.05132849560582
H           1.03463127627869   -0.45005343867487    2.51198123815122
N           1.20763121052208   -2.71579640484156    0.59580228001417
H           1.32548446759266   -1.87143642248133    0.04091890815016
H           0.52941076300184   -3.30173647119749    0.12503287496613
H           2.09120901613826   -3.20885010913755    0.60438393074199
