    26
        -50.45596417  Gyration_radius:  2.43493268296 Dipole_moment: 2.389
 S           0.79884572868000    0.86335697442454   -1.04216023036658
O           0.82529038296769   -0.53097534105445   -0.65457357320353
O           1.73366257544291    1.69476735241298   -0.35820166513035
O          -0.64492180804730    1.39585464508687   -0.81005104214788
O           0.94424008651076    0.97748650180904   -2.54654336703703
H           0.40469088273344    0.17673489071623   -2.92232341528412
H          -0.86644581867595    1.36763205825083    0.18247523946523
O          -1.10826237289716    1.26307280252919    1.68948051789010
H          -1.52832015045374    2.05254481498697    2.03686614057702
O          -1.49542352386595   -1.30361628263564    0.50294466008053
H          -1.60749705448313   -0.61791841627122    1.17121830921709
H          -0.60444333178537   -1.16466053617265    0.13801264333739
O          -2.57199453566152   -0.46500239095431   -1.82368354171547
H          -2.36676448366122   -0.90005759697248   -0.96710480069717
H          -2.42185098334331    0.47384258834230   -1.67742798555430
O          -0.38950881748735   -1.05721420805133   -3.15407133601648
H           0.02307162552532   -1.67921963068569   -2.54633209278223
H          -1.30067538913236   -0.88370990649074   -2.78498596815934
O           1.35806130606310    1.30661168148917    2.31194188642178
H          -0.14874525817648    1.27431571351514    2.04050965735259
H           1.62195186534362    0.35432409042779    2.36961613767666
H           1.69918184644387    1.60730350337510    1.45279109883932
N           1.88549392680184   -1.31249846308903    1.97779099690270
H           1.25761854064057   -2.00626783644493    2.36419361047083
H           2.82956986827111   -1.66658301724586    2.06233811557430
H           1.67317490225201   -1.22012398134191    0.98727999429218
