    26
        -50.47029317  Gyration_radius:  2.48005931495 Dipole_moment: 3.134
 S          -0.57820014138081   -1.95185072270657    0.22105412302675
O          -1.48240298065468   -1.45580688161443   -0.81283240636497
O          -0.99427643738619   -1.64277428538885    1.56235016374766
O           0.79368862174824   -1.53293987569315   -0.06039105968246
O          -0.59379721992750   -3.52929814497881    0.09154399667774
H          -0.34556788199588   -3.68641104504171   -0.81414501761625
H           0.91053327713881   -0.34617575144110    1.08294132271970
O           0.89946208394236    0.39758663797211    1.72613720364109
H           0.43683003006241    0.03929881297209    2.48864553903700
O          -2.85472797916637    0.18418145186920    1.05991060433436
H          -3.16269944548612   -0.18914213352479    0.23004873913284
H          -2.25086270058780   -0.49712548212078    1.41616182061651
O           1.96850760468012    0.19576998451528   -1.77197607429422
H           2.42146599128145    0.80556466705180   -1.15449210541211
H           1.73821007982367   -0.58101599032801   -1.23130450164085
O           2.92549901567997    1.64813749901173    0.31310014198461
H           2.24157809914750    1.35101084549234    0.93417632993542
H           3.76873100179510    1.41052821737215    0.70156680239559
O          -0.98180931732518    2.03318000502378    0.57043647151918
H          -0.24978602430585    1.64171403148426    1.08205226232931
H          -0.72664952253127    1.47645447864579   -0.86425699921357
H          -1.77945296368120    1.52465081569300    0.83991495057176
N          -0.57457449107652    0.85145615721874   -1.72281138555350
H          -1.01598179663152    1.23765641044098   -2.54944610825754
H          -0.98512037421167   -0.08551571256917   -1.47096670965570
H           0.47140346123370    0.70086601069954   -1.86741810411293
