    26
        -50.46892627  Gyration_radius:  2.48094960731 Dipole_moment: 4.922
 S           1.97535984003260    0.51003041389353   -0.77879481682796
O           0.69380827243904    1.17945514202777   -0.92378702595796
O           1.88808957786316   -0.89282767530656   -1.16438490578568
O           2.58841427984156    0.69268460093226    0.51855117261325
O           2.94711690272616    1.20556201929367   -1.81954995529869
H           3.79125690564797    1.00673880197711   -1.42980942706462
H           1.58118953878086    0.18011748565666    1.67461791211326
O           0.93297084486667   -0.10016912816402    2.36607865030557
H           1.44743193531256   -0.29560651929247    3.15072430195989
O          -0.56648032452309    2.05003547366790    1.33027304864040
H          -0.11862444315733    1.48243524340485    1.97176781830792
H          -0.07488931289278    1.92083115805363    0.50144607913830
O          -1.54908372261651    0.36461644359229   -1.99881322728346
H          -0.71176509425094    0.73279859660177   -1.62424662374490
H          -1.76356917341240    0.90776065129469   -2.75807993884025
O          -2.63206803651280    0.48241180695171    0.64174612291031
H          -2.02626851313437    1.18310475614131    0.97210242634753
H          -2.50574185597548    0.47745532558054   -0.31649934034434
O          -1.19346833103872   -1.56556908745845    1.45244316311981
H          -0.78148834482572   -1.87359545347120    0.05134700649488
H          -0.44098803425484   -1.11058799511855    1.87350269833244
H          -1.86153920152940   -0.85025785884660    1.27732699808123
N          -0.48767046407810   -1.93801313875137   -1.00030787457267
H          -1.07988255077634   -1.28519945714108   -1.53615062848675
H          -0.56283236931708   -2.88498870322694   -1.35367142916467
H           0.51072169461799   -1.57922291240042   -1.07783223507746
