    26
        -50.47029314  Gyration_radius:  2.48006664977 Dipole_moment: 3.135
 S          -0.98265141501321    0.54360254049543    1.71264634514516
O          -2.22250062392503    0.46000903714881    0.98909031242348
O          -0.18812835186126    1.72799155245637    1.39878636779097
O          -0.16726355023656   -0.66308621375749    1.58678215616493
O          -1.35754184783861    0.66523768449403    3.24563501005612
H          -0.51480698728351    0.74769668296189    3.68104230691731
H          -0.79034411454006   -1.21306649413016    0.15882780726758
O          -1.14172707620608   -1.45320616721665   -0.72762653501203
H          -2.08247156875397   -1.26679876939288   -0.66361726762395
O          -1.79707462729410    2.30504053157455   -0.87270401637873
H          -1.26549538043862    2.89530447558334   -0.33248809230226
H          -2.13523550299103    1.64312539240033   -0.23763229996421
O           2.27238190450518   -1.24465015397086    0.58237961125263
H           1.47520778951139   -1.18409559047163    1.13878617895434
H           2.04921327471681   -1.90577431395260   -0.10424849777015
O           1.15178352879595   -2.91657038249657   -1.23997162538473
H           0.99698858784016   -3.83186811761795   -1.00195357186993
H           0.28655151471431   -2.47723411474060   -1.22576063855410
O          -0.19513162434217    0.64423222041998   -2.22959038590845
H          -0.54323304155148   -0.20312890355811   -1.89547500416200
H          -0.84607187474647    1.31960248236599   -1.93360515382472
H           1.00100024073789    0.92092782961777   -1.26709209306765
N           1.62653403075265    1.09838900162260   -0.41384000188749
H           2.04052960855309    0.17281971827908   -0.08274846178120
H           0.98175075951490    1.43379968655436    0.34885961164293
H           2.34773634734727    1.78170041534574   -0.61448205208136
