    26
        -50.46576494  Gyration_radius:  2.49385263212 Dipole_moment: 1.854
 S          -0.77860506378881    1.21175162120317    0.05296140483232
O          -1.51613206950095    0.21501761280518   -0.68685542603192
O           0.54618568667426    1.42084531103333   -0.53156437116472
O          -0.66511140658366    0.89156229063819    1.47950762721631
O          -1.56622070157564    2.55408626722599   -0.06303327978627
H          -1.09652312036638    3.13298373252350    0.56717737548947
H           0.11581494123030   -0.49707282370718    1.80998271681932
O           0.61138478507722   -1.34134853145068    1.95288967938810
H           0.65523156862738   -1.47022594580964    2.90167068762555
O          -1.03352502167959   -1.99999316580835   -2.37879831570244
H          -1.11659598907491   -2.41861601730847   -1.49114964352899
H          -1.64996756077544   -1.25951505302540   -2.32423242935745
O          -1.35173071789729   -2.33262220809165    0.23485099033068
H          -0.61574386293525   -2.28941066622720    0.86132746216076
H          -1.60724703060972   -1.40451864819555    0.08815008821311
O          -0.22122376851026    3.40411400144802    2.05280626617681
H          -0.74935399094218    3.68518233644697    2.80344711002073
H          -0.23456800964937    2.42475854557018    2.05196479112422
O           2.49364558737205   -0.57516884265050    0.13728345776998
H           1.98133934662961   -1.02544074002783    0.83181870490651
H           1.80397182981569   -0.89904526170940   -1.40368652735027
H           2.15957348473901    0.33333897294452    0.13867884413062
N           1.13689333723400   -0.54660768719126   -2.13152941081258
H           0.78096153254271    0.34209943211632   -1.67359617625460
H           0.30489202684245   -1.20772277150440   -2.27510729352594
H           1.61265417710455   -0.34843175126439   -3.00496435271726
