    26
        -50.47192570  Gyration_radius:  2.43563004069 Dipole_moment: 1.709
 S           1.57802661525528    1.07604982174967    0.71785774307734
O           1.60538928488965    0.94767595479667   -0.71875601588157
O           1.56093230103979   -0.22894797109836    1.38690487442608
O           0.52659380537446    1.94319260465698    1.21688436393932
O           2.94383063021570    1.76018648528858    1.13476493403674
H           2.77481564907142    2.02137932336585    2.03405226127442
H          -0.37961762204764    2.32020780149942   -0.14025871050020
O          -0.72119228129073    2.36367969455952   -1.05803664754491
H           0.07514647352926    2.27710931241319   -1.59256766893394
O          -1.93567680705401    0.09316995429211   -1.56246019204097
H          -1.53580096065033    0.97468082187790   -1.32764474639027
H          -2.71702614320829    0.28523215861605   -2.08264951786527
O          -1.92623045039952   -1.66383302179307    0.56564511677267
H          -2.08893833492175   -1.04797950162134   -0.17105126036128
H          -0.48371375995600   -2.16267289166755    0.24194902110706
O           0.52821888864052   -0.91730908385500   -2.31175765604333
H           1.04743370569001   -0.19456523001986   -1.90800536187297
H          -0.39760500287691   -0.61999031788154   -2.25688656784083
O          -0.90709187809797   -0.04433399086481    2.43620786377317
H          -1.00618928398987    0.89791323335838    2.26325770302586
H          -1.73612638509246   -1.10032773762438    1.34887795842522
H           0.03070986624700   -0.21170360980948    2.23298018305643
N           0.55187912439546   -2.22171056964721   -0.03829931663011
H           0.61554660126341   -1.87878602827047   -1.04420258098451
H           0.93359632348805   -3.15217476505914    0.08355152100207
H           1.06308967063880   -1.51614244730756    0.54964270897807
