    26
        -50.47356231  Gyration_radius:  2.4354749028 Dipole_moment: 2.296
 S           1.49403094396813    1.24565078111638    0.99021932607774
O           1.10207531446024    1.31437934906605   -0.41521493361070
O           1.60993572317797   -0.11564301953382    1.45706527710665
O           0.65588531705036    2.08571625148605    1.82213822618447
O           2.94916028755211    1.87139748411248    1.07308939664067
H           2.74616854571586    2.80052750189611    1.08482216527701
H          -0.62734544061139    1.13635126281389    1.83002665242409
O          -1.45706225234815    0.60006568339702    1.76719099514239
H          -1.83596944911615    0.60248973253676    2.64817800306506
O           1.18705365035957   -2.30765160334183    0.17489287035583
H           1.73107266427734   -2.98221385665666    0.58333959872760
H           1.38135797505122   -1.46700850579391    0.66848499635977
O           1.12568145537078   -0.75216816578109   -2.08985690338597
H           1.29512503928781   -1.47076088119758   -1.45794292173035
H           1.26263348160312    0.06769871684482   -1.56861343883587
O          -1.48324834579151    1.80644944711455   -0.75548813208850
H          -1.78963931719672    1.60045319452267    0.13927893718765
H          -0.50468677539734    1.80955926723297   -0.67790740293258
O          -1.49248450050953   -1.82031699041672    0.45430315058103
H          -1.63239489591845   -1.18273565865314   -1.00153181059613
H          -0.57202225054687   -2.14231569139897    0.43702385612425
H          -1.48101625210032   -1.02231043972050    1.01537383066088
N          -1.48586318562171   -0.58240624536024   -1.86702082977734
H          -1.60969812408997    0.42528148545390   -1.55346746339876
H          -2.11026788140109   -0.83070897966139   -2.62446310799314
H          -0.45848172722555   -0.68978009007680   -2.13392031756614
