    26
        -50.45662725  Gyration_radius:  2.4839173257 Dipole_moment: 1.827
 S           1.45462960548829   -1.45029543600597    0.25684179282812
O           1.78030077890349   -0.43021636369317    1.25084300595565
O           0.92553069232117   -0.85959335116574   -0.95458599578466
O           0.65188867139764   -2.51669467273974    0.81442033377529
O           2.83557086266865   -2.11733630863706   -0.16026215350870
H           2.95792522870011   -2.75385349596147    0.53606948638970
H          -0.53052706227286   -1.61906967590341    1.38673315924304
O          -1.23673365054304   -1.04564886986150    1.77968739433651
H          -1.23604635369409   -1.24485992866746    2.71789932697346
O           1.24793476996116    1.96236443983931    0.71134870876932
H           1.38257762450895    1.97906782033234   -0.36399361933325
H           1.55571732432446    1.02169060765807    0.98647696327123
O          -3.22072652199376   -1.10478619789261   -0.17248218372643
H          -2.56676100902620   -1.24120927237689    0.53381051146201
H          -3.92699541726763   -0.57977238673828    0.20824396189804
O          -1.40404910901627    0.41913175042758   -1.53585296137233
H          -2.14359180914958   -0.17669451781320   -1.31525665048646
H          -0.60579442709677   -0.13021725211020   -1.44027523734618
O          -1.21486694996556    1.52486759155725    0.83998008366622
H           0.20657786212299    1.90150169784291    0.83561776964822
H          -1.36752442466380    1.25802807854400   -0.10650587588988
H          -1.24549015298684    0.68080053340998    1.32777131463554
N           1.44176493606567    1.73669500471658   -1.79358122345784
H           2.23805078755030    2.04490977036481   -2.33468109061321
H           0.58934283329870    2.02756467316801   -2.25730163981304
H           1.43129490028308    0.71362572177453   -1.75096518143240
