    26
        -50.45662726  Gyration_radius:  2.48398025314 Dipole_moment: 1.828
 S           0.52071110447240   -0.39546884939140    1.96405888306004
O          -0.70672450026394   -1.15959602537483    1.75384141138424
O           0.49699838359414    0.85571226252829    1.23583308630853
O           1.70486840952985   -1.19925220375178    1.75371840388516
O           0.53382064041825    0.00484817614062    3.50205999588697
H           0.88826202949582   -0.78267939052575    3.90092645034144
H           1.37053336041295   -1.69415450346295    0.27911126077637
O           1.12858625729305   -2.03316605007481   -0.62007259380885
H           1.11588319013948   -2.98875448325042   -0.53883393995719
O           2.48997986054099   -0.29022305290325   -2.31104497554882
H           2.16334105353014   -0.95444465381432   -1.68076742348058
H           2.29106821765994   -0.62532770859268   -3.18714333389127
O          -2.41458215737067   -0.24307791043726    0.15944308286174
H          -2.28030064060070    0.82485098095163    0.28579883473171
H          -1.80158806621113   -0.65733737055549    0.87210264437091
O           0.59683460632020    1.46763246258493   -1.41275600875858
H           0.67886714968197    1.33957387684773   -0.45098142065847
H           1.41231521181708    1.08410685489333   -1.78496701901197
O          -0.91278279900669   -0.64668946576270   -1.80388273925572
H          -1.90016723757880   -0.45984620587532   -0.73054857353702
H          -0.42496954670935    0.22073640691467   -1.79816321881156
H          -0.26691404233044   -1.27959883837262   -1.43837250808482
N          -1.81752802934640    2.18763965779543    0.47365269958994
H          -1.57929281374317    2.62594480510811   -0.40805011944197
H          -0.93891095715115    1.96067653391265    0.94808292828216
H          -2.34830867459806    2.83789467447721    1.03695422276209
