    26
        -50.46788069  Gyration_radius:  2.39854968799 Dipole_moment: 5.646
 S           0.80504243733628   -1.48227636486514    0.64438055429228
O           1.28184113988881   -2.77284833731055    0.22658305539376
O          -0.52114493962925   -1.18269216989656    0.11570998196244
O           1.73736091659162   -0.39503768524878    0.26368369799598
O           0.70784882788764   -1.45396179894783    2.20093739390724
H           0.25298947418552   -0.61077630896456    2.43844402702926
H           1.31382537254428   -0.12600201684961   -1.16494052632441
O          -0.62866172788878    0.78216364433493    2.77172188584043
H          -1.07841984209282    0.65577451676213    3.60880771870705
O           0.90665978758068    2.05014755165279    0.81741817159205
H           1.35384013677721    1.18930912292534    0.66067167710036
H           0.45034931544083    1.93111634554341    1.66016654990833
O           0.08943310904440   -2.59457341037058   -2.13206612225353
H           0.62122869868117   -2.81832792497915   -1.33279702341475
H          -0.81937880562035   -2.64121070825261   -1.82095212527992
O          -0.74915902883913    2.04579440180080   -1.20226763329136
H          -0.78805682292598    2.92690950927375   -1.57635097511219
H          -0.13024208057679    2.10393495092656   -0.41711899171047
O          -2.27772780275566    0.63681762348839    0.75693134466277
H          -2.06200669574174    1.28380831027532    0.07231525616505
H          -1.77089298065352   -0.16075693747815    0.48695196931195
H          -1.33778272252958    0.77461415081812    2.06411376528448
N           0.78943896319401   -0.03682437367080   -2.09969755372522
H           0.40109228627575   -1.01488336725876   -2.25036268963879
H           1.40914087885587    0.23969576990491   -2.85423473852100
H           0.04338209499061    0.67008550634634   -1.93804866977626
