    26
        -50.45293218  Gyration_radius:  2.53959036256 Dipole_moment: 4.466
 S           0.06028376850599    1.00469196709955   -0.87395672690361
O           0.48494278952543    1.28734341876846    0.47149784523190
O          -1.19006417681817    0.29537271505702   -0.96923402898786
O           1.14225251525682    0.21842738237565   -1.61724984589987
O          -0.02288728087104    2.30861578078852   -1.66664806953530
H          -0.41942422430810    2.00245673812265   -2.56694326032103
H           1.56619224410429   -0.56039815106123   -1.04334719776513
O           0.22337807862016   -2.31199189272751    1.58295064429207
H          -0.01886872307738   -3.20419355686074    1.83291505669674
O           2.12654902909780   -0.19675287289329    2.10731217326841
H           1.47812717651145   -0.87511039129958    2.33915161607433
H           1.63107221284212    0.49098801069227    1.63687715075970
O           2.10707460018152   -1.57409371850054   -0.17574314258851
H           2.51171358871459   -1.06275077820338    0.55956634238712
H           1.35797044262157   -2.02407891483992    0.27127262856513
O          -1.06439987311082    1.27126165674256    2.70950248867076
H          -0.54383624367480    1.44173136156913    1.90609592782940
H          -0.43403260760933    1.21712774815573    3.43087829798711
O          -1.96710060223479   -0.91945402575457    1.33502461414235
H          -0.63492784953463   -1.80976713428950    1.49381384207467
H          -1.86152426229411   -0.17738260502363    1.95819391343550
H          -1.85009967256679   -0.52476285609997    0.45422402208845
N          -1.06071863877992    1.12009539723123   -3.66856976829832
H          -0.36722296185544    0.62316651146415   -4.21157083024043
H          -1.77132994543762    1.48439003877446   -4.28923270250728
H          -1.48311936385637    0.47506818070594   -3.00678099047458
