    26
        -50.45659071  Gyration_radius:  2.460554897 Dipole_moment: 4.780
 S           1.02041055918782    0.30188179113958   -0.69660686281516
O           2.37353551753993   -0.17110367417336   -0.70263467402131
O           0.85430822950099    1.62561093851237   -0.10559613558013
O           0.09801497665264   -0.65540826702539   -0.04975857334921
O           0.48623158019599    0.42887986175700   -2.16843221015191
H           0.92133267120347   -0.32500185337404   -2.67041566427453
H          -1.31950979579533   -0.08118681825639   -0.60664224034094
O          -2.15528514289808    0.40694352280796   -0.81008184582954
H          -2.04031974673615    0.73294230310934   -1.70543220211447
O          -1.93238136465631   -1.37534628702279    1.64853293280997
H          -1.13736930729774   -1.37512767684358    1.09104223865942
H          -2.66428739671940   -1.17722177006978    1.05844496756138
O           1.43840474278475    0.01405557045900    2.22460736821543
H           2.12537989565996    0.61822645657978    1.93506629460728
H           1.11220654979381   -0.40862404843205    1.41545669075076
O          -1.02192187055986    0.74648319751291    2.94347902170691
H          -0.05763422875556    0.54512917299650    2.88899757879283
H          -1.46374868456778   -0.09460525229752    2.66701162247291
O          -1.34840345468491    2.14265653686487    0.93246376873799
H          -1.24742504407416    1.57981021444013    1.89788860401300
H          -0.39793356339552    2.06381798800934    0.51674395594123
H          -1.88987077193623    1.56345277856489    0.31281903913500
N           1.86337331111759   -1.60276727941911   -3.03512825592150
H           2.40965908753362   -1.38210169388732   -2.20308923857819
H           2.47597580198159   -1.58056119537089   -3.83993701799839
H           1.49725742902266   -2.54083452656621   -2.93879914239740
