    26
        -50.45599934  Gyration_radius:  2.47913243339 Dipole_moment: 2.514
 S           0.48336294082892   -1.02378953475373   -0.95430497969949
O          -0.15953307728643   -2.29942522250621   -0.82643223588006
O           1.56750749029166   -0.81759842564556   -0.02060687068628
O          -0.55097294422811    0.10214014068513   -0.77893762415628
O           0.96396624375479   -0.82250013251003   -2.37881886682801
H           1.28624225551627    0.16296005126055   -2.46955548882072
H          -1.02358805505235    0.01822489443150    0.14132062588748
O          -1.66070789312494   -0.28400934202239    1.44630264389444
H          -2.29594012291145   -0.96316931736417    1.14147670232721
O           1.79161156966171    1.54336974163979   -2.47303145977604
H           1.86838516668644    1.77821555893375   -1.48936639654515
H           2.68720110866671    1.55005206646305   -2.81917152537919
O          -2.67032624437219   -2.38507315797228    0.13129405354719
H          -3.28546277505753   -2.47127151560796   -0.59827557457224
H          -1.77698274259662   -2.49016668939116   -0.24983288986385
O           2.00468053491263    1.84606295350417    0.06619688797746
H           1.16437466521157    2.18757287941828    0.45671325683738
H           1.99569679117829    0.88817166790265    0.22867665037373
O           0.33813037122170   -1.88992210656699    2.09733658154793
H           0.08781250987101   -2.75564982306662    1.76477545142131
H           0.97563970399514   -1.53402737978563    1.45264295306382
H          -0.95386987626950   -0.80405153051865    1.90118559462968
N          -0.44299434047866    2.57853562057581    1.01152661005098
H          -0.59729806815519    3.45741887756475    1.48934925676889
H          -0.82871316885061    1.83640327431717    1.58378787038752
H          -0.96822206342466    2.59152644102019    0.14574878350165
