    26
        -50.45599945  Gyration_radius:  2.47921277409 Dipole_moment: 2.517
 S           0.48753662782308   -0.26021373731125   -1.37225685359811
O          -0.44548832487076    0.08537016183630   -2.40523554305668
O           0.25844255722054   -1.56181481167357   -0.78670267259150
O           0.45305970922567    0.80339630780864   -0.26059354977368
O           1.90726801358344   -0.15584774117936   -1.89598591153013
H           2.55396243918644   -0.26570557844691   -1.08805589777459
H          -0.50697376504263    0.89285951277494    0.12401297755112
O          -1.93803460284832    0.96093028011842    0.50722533912934
H          -2.25012144093731    1.54936201784340   -0.20982980085252
O           3.38225634876389   -0.51357529958733    0.10104653836662
H           2.73203689982019   -0.90284899100359    0.77490382912086
H           4.01301072143696   -1.21074806183774   -0.09398172032770
O          -2.23152425266192    2.03733712854814   -1.92543255543548
H          -1.92607832232059    2.85290655927151   -2.32501466016421
H          -1.62498947969843    1.33678156068278   -2.23471970954327
O           1.57119339549889   -1.57992860302555    1.57356304935745
H           1.00256963048565   -1.77986375752952    0.81148930108336
H           1.08438164159359   -0.89564965188126    2.09314733181320
O          -2.40526274684768   -1.36164547533885   -0.66999288314758
H          -2.62735220998882   -1.14438685664047   -1.57900210898111
H          -1.47852282848592   -1.66069078183571   -0.68934328281519
H          -2.26178157101286    0.06603706676083    0.24049210889828
N           0.18696570457771    0.44279826499073    2.76291186549659
H          -0.75976980709439    0.47244172002301    2.40257434278436
H           0.67827658060401    1.23965300466984    2.37658079008117
H           0.14493907199602    0.55304574198700    3.76819968591037
