    26
        -50.46215555  Gyration_radius:  2.39735366562 Dipole_moment: 4.879
 S           0.57751290057746   -0.55736879970941    1.41147732745837
O           1.28499781625365   -0.62382515216105    0.10769266962261
O           0.00390203542883   -1.83578489979438    1.74533029992383
O          -0.42061183065825    0.51016981144931    1.34970996745223
O           1.63373810988221   -0.17463105943358    2.46730349057911
H           1.84975795223733    0.77721559290840    2.22383378784693
H          -1.69917406124463    0.21218017319690    0.47707654991427
O          -2.46821328461368   -0.00754610570451   -0.11926639284832
H          -3.22513197075904    0.45376310659900    0.24430994600663
O           0.06088655048318   -1.89394368296444   -1.67858909612456
H           0.67558583135935   -1.47627688344653   -0.96083167609455
H          -0.39155661463211   -1.05036661672882   -2.12021124200216
O          -1.00231974776398    0.27104955694387   -2.38963776427731
H          -0.29230770348556    0.89446377303974   -2.11757989027872
H          -1.67885413721491    0.30867839329941   -1.68681476615170
O           1.19697677247387    1.49405579466975   -1.42639150624066
H           1.26629822708620    0.75747873471883   -0.77250806188820
H           1.91296934737305    1.35997951973932   -2.05060330840422
O          -1.70294860922586   -2.62945756453205   -0.07344747139928
H          -0.70547082087757   -2.34569621748848   -1.09675350138013
H          -1.13157083991213   -2.51875761197482    0.72418006049021
H          -2.26102106851732   -1.83062605210839   -0.09217686693004
N           1.73959251653707    2.26527630052959    1.58071839671126
H           2.18001196267769    2.44128668374700    0.68640610062365
H           1.84781178836659    3.08846339051263    2.15866501986313
H           0.74913888816647    2.11021979469113    1.40810792752778
