    26
        -50.45599949  Gyration_radius:  2.47922008444 Dipole_moment: 2.518
 S          -1.08074117360142   -0.59992142478230    0.81247006407796
O          -0.74372267857537   -1.86258765274031    1.40326437234746
O          -1.52582883149606   -0.69463718210946   -0.55957075392320
O           0.12880956786927    0.34895594923792    0.88342970806170
O          -2.11848406857452    0.11169584488755    1.65953134282630
H          -2.22698606838901    1.07713244644651    1.28659881972137
H           0.94832102326601   -0.07396228455605    0.40682362426393
O           2.04247117372388   -0.84364264724296   -0.23334716293174
H           2.29733334979197   -1.39497585627132    0.53398675775238
O          -2.36706569932528    2.38853263333027    0.63678942262928
H          -3.29534723419280    2.55222866183232    0.45397758765090
H          -1.92051879311119    2.26319581700899   -0.26508250787189
O          -1.29162091529957    1.78134326802535   -1.61259264995365
H          -0.31547210936208    1.92949662948152   -1.59295038078255
H          -1.41202516753480    0.82829055321884   -1.46662913762096
O           1.83777418757366   -2.37988140599113    1.94872411254867
H           2.00301645457601   -2.22550283386659    2.87985431337651
H           0.87122666639259   -2.30788520455864    1.82630341400331
O           0.29254048843478   -2.49683129662223   -1.33032598322425
H          -0.48001314945577   -1.91052697763941   -1.24042868069807
H           1.53990356764065   -1.46311354979590   -0.81682302727278
H           0.16498378168288   -3.19570517653250   -0.68369658503885
N           1.40536120491282    2.03435417388021   -1.32260913575624
H           1.95133831400041    2.68471762404197   -1.87347959964913
H           1.84660093916384    1.12387782599517   -1.38069201179406
H           1.44814513988229    2.32535207531774   -0.35352590269961
