    26
        -50.46576492  Gyration_radius:  2.49380678018 Dipole_moment: 1.851
 S          -1.40327658144625    0.21956140338369   -0.24599927922863
O          -0.74086090878943   -0.47163240979385   -1.35233426355253
O          -0.77181410213982    1.49086018536628    0.01846066026618
O          -1.45935617769182   -0.64385988991213    0.93793947548289
O          -2.87335966892655    0.51199997062218   -0.68071202776295
H          -3.27186377393874   -0.37893356405380   -0.70107007148771
H          -0.01202869133637   -1.04964927513954    1.56084946649334
O           0.89395413089773   -1.27633439391779    1.88732892904195
H           0.77093832022504   -1.84757068825507    2.64713642083950
O          -3.43618171701715   -2.00785992712497   -0.09664413516957
H          -2.64238043749310   -1.73074283027153    0.40573694077055
H          -4.13447035839321   -2.14554167440196    0.54742328705569
O           1.73224747078799    2.75982737677379   -0.32974240520188
H           1.79764955162240    2.39735165404798    0.58367036491903
H           0.79683644548832    2.98503283355737   -0.40360783160063
O           1.15144582714376    1.50190107554431    1.93370748745699
H           0.30076650122587    1.52921539857538    1.46073518906877
H           1.32770104565271    0.56028831446942    2.06929092871224
O           1.71097333013444   -1.78869598924172   -0.66170745914215
H           0.79686034561387   -1.78667305609824   -0.98014037893621
H           2.02964445389231   -0.25062223437503   -1.36058132319898
H           1.63372751922260   -1.70557379434827    0.30503521520767
N           1.59208138184082    0.59314956984341   -1.80270459952886
H           1.74386708138391    1.48171860475995   -1.22193903226704
H           0.56248323239537    0.33921502923143   -1.76009758636570
H           1.90441576966210    0.71356832072398   -2.76003400188046
