    26
        -50.45659061  Gyration_radius:  2.46041119338 Dipole_moment: 4.776
 S           1.16551919659507    0.46819180695431    0.20453695104182
O           2.01933405023807    0.48932766634383    1.35580348856057
O           0.54752827006441    1.75371712188122   -0.10299737120782
O           0.12547061679591   -0.57815384144841    0.30110892763755
O           1.99267346998305    0.08322852051859   -1.07421133162862
H           2.68218477114739   -0.57248672636576   -0.75142162005039
H          -0.33035802888853   -0.64971180867206   -1.25966129675202
O          -0.70329028148851   -0.52757816154426   -2.16753762013446
H           0.05976889919454   -0.38511838205379   -2.73202105007606
O          -0.86586055755599    0.98120286976906    2.30186925080379
H          -0.41367693228818    0.30819304921870    1.77051678262071
H          -0.23652457282498    1.70042438474808    2.38792697191610
O          -2.43430889465041   -1.54840742647680    0.12007451170909
H          -1.50609261123814   -1.40284554964080    0.36524438081864
H          -2.42750713454411   -1.74200597465262   -0.82098993432503
O          -2.97420206274185    0.98442910601448    0.67010367447591
H          -2.33003987855357    1.11192838805562    1.40631927320485
H          -2.99677292520309    0.00506394965315    0.53132489904925
O          -1.64539604631776    1.71400015764793   -1.27995509175670
H          -1.46875234538643    0.86588186721557   -1.79197922038911
H          -2.32149663079308    1.44356737480797   -0.42679247740207
H          -0.72990085059333    1.87049100959211   -0.81082482058281
N           3.59407050401077   -1.50755478247962    0.22222737051296
H           3.32672833485201   -2.46833679879219    0.39180773370901
H           3.26693517956228   -0.93858053787027    1.00244787747324
H           4.60396648059590   -1.45886730241949    0.18707976071997
