    26
        -50.46327888  Gyration_radius:  2.36776814663 Dipole_moment: 4.811
 S           0.99743883495301    0.42436179464255   -0.97649662256453
O           0.88974214343536    1.30749331855260    0.18849594844891
O           0.55908757324340    1.10139234854689   -2.18891874935010
O           0.21019520080693   -0.79599168209067   -0.74819967329896
O           2.46290053970660    0.01101346779655   -1.14344763041540
H           2.59577649054452   -0.66169667069253   -0.37450435681065
H          -0.84776239412181   -0.75811499648333    0.55974457057173
O          -1.50123627313611   -0.58183980641657    1.27055222323441
H          -0.95597897172173   -0.49471708865821    2.06262868643089
O           0.94661706080917    0.11335541555923    2.52019446440824
H           1.21669924687786    0.75264687837124    3.18121585694401
H           0.94376286252266    0.60060391107486    1.66087708588788
O          -2.22581596790555   -1.08589047509334   -1.70718932691257
H          -2.68946433482807   -1.27550510289310   -0.88558562354220
H          -1.26816975340961   -1.15371789025883   -1.48780641401592
O          -1.90897097952743    1.41375382569020   -2.06973143495973
H          -2.19379035757659    0.42810208374923   -2.05059413555662
H          -0.88185128058408    1.36406423594059   -2.25985476854251
O          -1.66157149335063    1.90307396156599    0.35882825723836
H          -1.85203114292023    1.04025696580775    0.80221725775916
H          -0.67767388652788    1.93381618564655    0.35221118116827
H          -1.92810629691157    1.72634225475420   -1.04427553694732
N           2.50603477267686   -1.65967135321757    0.80434655398402
H           2.08197666283883   -1.17492371869378    1.59355416079382
H           3.34250293135500   -2.13592415318484    1.11513817527992
H           1.83968882274380   -2.34228371005161    0.46659984085989
