    26
        -50.46824852  Gyration_radius:  2.38804733022 Dipole_moment: 4.303
 S           0.84655329329991    0.51374041057771    0.83169514097556
O           0.35594766556227    0.48762510674850    2.18529233948948
O           0.08456692887416    1.42239920947832   -0.03767430328652
O           0.64339831581114   -0.91849006646359    0.21031355147851
O           2.27583040218442    0.76088389086091    0.69702257713490
H           2.35880196753708    1.05664288662753   -0.73885330873727
H          -0.34638015362064   -1.12664181228268    0.29423662663784
O          -1.87049702549631   -1.28968506612974    0.51982218040438
H          -1.79330195838226   -1.73717597058346    1.38155406125854
O          -0.93053502140985   -1.70809865705951    3.00828514308872
H          -0.44055663724329   -0.88135370110467    2.81946053558707
H          -0.30634554224607   -2.29446773092407    3.43698726372932
O           1.14914089880658   -1.03709491763868   -2.53834080688749
H           1.22573226238808   -1.48617696126169   -1.68623611667352
H           0.21132988511767   -0.72305728085227   -2.55877235967412
O          -1.18285780042904    0.08804897683239   -2.00645331671279
H          -0.81742005058944    0.66598805039025   -1.30772127367131
H          -1.79475945661226   -0.50213098561344   -1.55580281017929
O          -2.22171396884470    1.22664934432316    1.29107590441929
H          -2.18994619673757   -0.38307668379840    0.75480030181349
H          -1.94225316566082    1.19184386358533    2.21042086221078
H          -1.42691558308053    1.50774323120862    0.79982836451593
N           2.12014268260504    1.26525258265466   -1.78445554512790
H           1.28831279277075    1.85679652981100   -1.71698078929686
H           1.82705105924288    0.32463395981644   -2.22355846441560
H           2.87667439614177    1.71920180082927   -2.28594573806100
