    26
        -50.47136191  Gyration_radius:  2.44284847737 Dipole_moment: 2.084
 S          -1.52319438133677   -0.08662009701530   -1.40758933090836
O          -0.79618556683500   -1.32504432801575   -1.42137274547472
O          -0.70932541158019    1.05710011317332   -1.82106694338491
O          -2.19125025877085    0.18568542657864   -0.14041330603145
O          -2.67257497793674   -0.20559210457906   -2.48931634886764
H          -3.06495575333778    0.65852852226323   -2.43284152207759
H          -1.55231871300516   -0.55247238017511    1.13716385808776
O          -1.15289532758743   -0.96127863320074    1.94938568524614
H          -1.89099110310037   -1.21026934800009    2.50740793115632
O           0.88036300203762    0.89243795160628    2.08261031150919
H           0.18171178742169    0.24176781052093    2.26928354625119
H           0.43576344675038    1.57960317598079    1.53407292297344
O           1.88064845335078    0.70844389833716   -1.92950612354207
H           2.15806604923317    1.62425225700595   -2.00011455639341
H           0.89602122098950    0.73031396747667   -1.98401322715189
O          -0.60934639646986    2.39897829254252    0.45712079206807
H          -1.47854145157272    2.14055189533716    0.77787342196306
H          -0.56859770410947    2.00055358929995   -0.43631977931051
O           0.55156488161164   -2.54773507579908    0.48651116407908
H          -0.02450653610086   -2.20729295989414    1.19253148473880
H           0.06975178019523   -2.30955898752413   -0.33223866149554
H           1.67453466369319   -1.45646964904028    0.40034804302805
N           2.26606536461082   -0.56383880064238    0.39876889382122
H           1.81930542279297    0.08426812916681    1.12209336579228
H           2.18768797552427   -0.11074555800536   -0.54513688292217
H           3.23319954353412   -0.76556710739730    0.62475799684635
