    26
        -50.45462898  Gyration_radius:  2.52291241747 Dipole_moment: 3.160
 S          -1.80132791908387   -1.41570110348966   -1.14512126372661
O          -1.04306936378127   -0.69282179785824   -2.16671136879836
O          -2.25293190391136   -0.54017079337073   -0.08554666984311
O          -1.07297510562586   -2.57871636975422   -0.67604069140378
O          -3.09820588650056   -1.95842882058887   -1.86591190035513
H          -2.71611733909793   -2.58487317858199   -2.47061322503174
H           0.39345976362192   -2.14914311736759   -0.24442326373121
O           1.27578867834889   -1.85251744741606    0.10460735252911
H           1.83271680185998   -2.63257017863865    0.10538531550629
O           0.08789424545093    1.46959352386915   -1.64171767570366
H          -0.45862821658641    1.78354627084383   -0.82648779283481
H          -0.38799226082909    0.60192302174324   -1.94911933079471
O          -1.30230545105221    1.89058772688478    0.44369408034680
H          -1.97813219363960    1.22634342123932    0.20952213972709
H          -0.79802679347736    1.43761464247672    1.14052926117875
O          -0.29523508269231   -0.30916807049717    1.80564371832166
H           0.37570153747842   -0.90391313007110    1.43957645555552
H          -1.11162738345592   -0.55562580399579    1.33784730910180
O           2.16090534100619    0.61820310310749   -0.56712770402616
H           2.14583311122048    1.06511572262413    0.32412970604632
H           1.93289255204302   -0.31780737175620   -0.39813421879845
H           1.03648835408277    1.14070448793326   -1.25070703354783
N           1.84223037332163    1.73605280349914    1.84534090744604
H           2.64121643152761    1.75730032997893    2.46549060710353
H           1.15414163356164    1.10072671232528    2.23985294972451
H           1.43730607621075    2.66374542686041    1.82604230600549
