    26
        -50.46824851  Gyration_radius:  2.38804693899 Dipole_moment: 4.295
 S           1.04217296945040    0.70629911457644    0.29690387981898
O           0.91292584682561    1.34194553080727    1.58252910348632
O           0.10337432338580    1.23722583654404   -0.70263349880594
O           0.65564397658014   -0.81103715889711    0.46048821064111
O           2.39469209898159    0.67270634492292   -0.24298941944301
H           2.11476705926234    0.29501962152062   -1.63457422695878
H          -0.28360118906158   -0.82598283075006    0.84464216261364
O          -1.70256538502334   -0.66634587055786    1.44634735902694
H          -1.41686596792215   -0.69704913182997    2.37703863465887
O          -0.16658654571168   -0.07480381420943    3.57756650739097
H           0.53367075466432   -0.49061996502204    4.08152005241975
H           0.27637521908225    0.51040644757631    2.92905391168743
O           0.43915926141094   -2.18913851044470   -1.96478908621917
H           0.72172205782989   -2.22706949682276   -1.04161076924778
H          -0.46543024506243   -1.79116272567143   -1.92111491754031
O          -1.65364794487277   -0.63917870076416   -1.51205063467541
H          -2.14247071982557   -0.88368736141671   -0.72017323955513
H          -1.10945828272587    0.13087060124051   -1.25375009019942
O          -1.79119356714715    1.95565716152535    1.03500491145700
H          -1.14228565650467    1.88324822355713    0.30998743229007
H          -1.93217006686780    0.28537587093372    1.30326248393137
H          -1.28733174692732    2.28973542017490    1.78268085138493
N           1.61958891538498    0.05628390914676   -2.57859258687209
H           1.20425372823710   -0.93251096918779   -2.46365286741982
H           2.23014467408095    0.13961559339380   -3.38491296842459
H           0.84511643253784    0.72419686967799   -2.60618118547828
