    26
        -50.44079368  Gyration_radius:  2.58737855122 Dipole_moment: 5.370
 S           1.05668741142253   -0.41894929136097    1.46963569328522
O           0.92790554486476   -1.07179933466374    0.19860650880459
O          -0.06840274816606   -0.48890522952476    2.33581325657315
O           1.45151370169304    1.06955196233077    1.20597409411415
O           2.30974081361687   -0.93107775608187    2.20592859515825
H           3.05065953683578   -0.75360916618204    1.57949909780068
H           0.67362688452139    1.52878584135365    0.72395824883373
O          -0.42690641628839    2.06805555748712   -0.15669084197794
H          -0.26520077021126    2.96828653293651   -0.44696168742909
O          -2.41711200379817    0.58800264673754    1.31561817425402
H          -1.74845117099601    0.20429979325629    1.90015324124589
H          -1.95190969561660    1.25778080596372    0.80197620152434
O          -2.01465213974777   -0.65779517235059   -2.78186214948498
H          -2.77999826782409   -0.08141710247268   -2.75926012058039
H          -2.04752723205503   -1.18796309680442   -1.93494061038224
O           3.93034467974978    0.09560599096035    0.44287342901136
H           4.67247467090300    0.60029472550242    0.78612801192828
H           3.21355567433534    0.71763826479287    0.26528154428793
O           0.25191726692577    0.45819068148972   -1.98797156906285
H           0.59403304340154   -0.23806415912390   -1.40422543253887
H          -0.54673267794491    0.06139292410781   -2.42016817423630
H          -0.22840683561949    1.46075540557088   -0.96273028149213
N          -1.95432829003649   -1.76228592215780   -0.36663376037404
H          -2.34881077223983   -2.65496977386400   -0.09974074115450
H          -2.37014241307457   -1.04826089463014    0.23164976782451
H          -0.96387778464957   -1.78354422328101   -0.14191049591869
