    26
        -50.46977830  Gyration_radius:  2.4390886503 Dipole_moment: 5.762
 S          -0.28824335920168   -1.39678695340088    1.21215350960121
O           0.03139489838791   -1.76160227643570   -0.16559381109422
O          -1.69351715757265   -1.42634378683410    1.50643862528452
O           0.37133930639485   -0.14440904291006    1.57054915832561
O           0.38084996284178   -2.49904809661608    2.13258520383307
H          -0.36669622104077   -3.06592927168069    2.28487270165522
H          -0.36623079183473    1.22051367477346    1.01975277444056
O          -0.78789055869388    2.02279289514090    0.63581264179237
H          -0.85469801097539    2.66406918306609    1.34455471033653
O          -2.99875992969025    0.39614381518771   -0.02875571293615
H          -2.43418857735485    1.15434379018261    0.17831333226859
H          -2.71257459713803   -0.31013179902753    0.57629609128661
O           2.92807166834484    0.33624610938736    1.16090501372172
H           2.02403915628508    0.09074760861838    1.46070858723127
H           3.14514164903118    1.15840298275753    1.60300832377699
O          -1.52162419336423   -0.49345606223970   -2.07914933067680
H          -2.26058828120809   -0.18287179547041   -1.51256623219187
H          -1.04400587102252   -1.12725044469002   -1.52235859035248
O           0.10485216917429    1.56567581596006   -1.94682989908974
H          -0.57369987852709    0.87435861797153   -2.17536199496146
H          -0.21650520878165    1.95486214696083   -1.11807579421853
H           1.22850238081588    0.61028624333867   -1.58496583724379
N           1.85656630542258   -0.20769336354055   -1.24294017505189
H           2.39229487003353   -0.60646661454818   -2.00580650984706
H           1.18638710519803   -0.92164977837312   -0.84437791133127
H           2.46978319447297    0.09519642242395   -0.45916885455942
