    26
        -50.45958861  Gyration_radius:  2.42015560404 Dipole_moment: 7.263
 S           0.28096938967543   -1.67035944448331    0.76840410979842
O          -0.37462828801248   -1.54840765863460   -0.53436593278816
O          -0.63043729274101   -1.94940239450981    1.84167888251683
O           1.16404066997676   -0.53385695114043    0.99951189886546
O           1.24249941752297   -2.92719243966238    0.65869567964840
H           0.67695810534468   -3.59426339662582    1.03060488194949
H           0.40669945915289    0.88429120696953    1.22665119592611
O          -0.08542111363009    1.73638735077386    1.30323343489591
H           0.36079636499822    2.25466973866029    1.97415365177777
O           0.53040273830953    0.15573585222329   -2.16610379869826
H           1.49377339683026    0.34622778435895   -1.79685050041265
H           0.18233695683766   -0.61420218403952   -1.59530552248841
O          -2.35299096691491    0.14687398477462    1.87335165989569
H          -1.70229599373942    0.86199667001607    1.84898266446813
H          -1.84110878244719   -0.67261887401013    1.99053433290987
O          -2.70615004779448   -0.04791218833785   -0.76950631541940
H          -2.84516188594910    0.05411919120644    0.19750524905612
H          -2.07391148697282   -0.77803913362577   -0.84145949985464
O          -1.02078498928284    1.86419116941177   -1.26771043139212
H          -1.80700735728182    1.24819594844800   -1.16228126923237
H          -0.70773572436921    2.02111969637141   -0.35893672449901
H          -0.11814934048958    0.97503911927856   -1.86175536174104
N           2.79151429254866    0.45945831679525   -1.02324916459392
H           3.15796089806505    1.38498651190331   -0.84391508628711
H           3.54873437165912   -0.12883711831860   -1.34457971852858
H           2.42909721868272    0.07179923224836   -0.14728832580295
