    26
        -50.45383328  Gyration_radius:  2.4823158858 Dipole_moment: 7.392
 S          -1.96495500954256    0.54835674192152   -0.08605392676542
O          -1.44657602658552    1.83023806779064    0.33277139386462
O          -2.45110461518309   -0.27495002167669    0.98775245385802
O          -0.92466756381763   -0.16698084194116   -0.88465686244305
O          -3.15861029720587    0.78831564391881   -1.07251127900385
H          -2.75523245047224    1.24260217427948   -1.83067991359574
H           0.51016770747479    0.66183139002905   -0.75323408743092
O           1.35566319512182    1.15862440044892   -0.65908239259359
H           1.16992494846399    2.02543372033041   -1.02642308306362
O           0.97337277706034   -1.25968219129506    2.10437104246009
H           0.19894676686251   -1.74999731703009    1.59223886749698
H           1.78813163483257   -1.26272532689826    1.43391634259356
O          -0.84364372574563   -2.25958052433887    0.69170999592979
H          -1.64716879564644   -1.83156855129025    1.05663727829295
H          -0.71588595237878   -1.71669128808731   -0.11283720500894
O          -1.38488349676171    1.28455883526746   -3.03422120717166
H          -1.56121517267157    0.75283264771430   -3.81300196018839
H          -1.04209871865923    0.67524898854227   -2.34999014268595
O           0.50836572511992    1.20826379961068    1.94066982230094
H          -0.36395350239627    1.46800522219266    1.56311063764184
H           0.70352528519740   -0.25460324656619    2.16216046183495
H           1.11553474795848    1.38905629180349    1.20123853026154
N           2.82288590682977   -1.11404274624298    0.34509459811278
H           3.76609463006708   -0.95072132831255    0.67244308617126
H           2.51284618035191   -0.29106852420076   -0.17021562011030
H           2.83453580180593   -1.90075604594916   -0.29120682078372
