    26
        -50.44336408  Gyration_radius:  2.52128253294 Dipole_moment: 4.876
 S           1.00657917583689    1.39087913844037    1.00110698574796
O          -0.05830323855930    1.53053667595396    2.00350798137736
O           0.65291353339113    1.87002740750446   -0.29777580467333
O           1.50741942308739    0.01369315851569    1.01896495509353
O           2.19135829278292    2.29283724778742    1.52651703921509
H           2.31445018386639    2.01244694397836    2.42782304309151
H           0.57054927987630   -1.23952097727472    1.02259037507521
O          -0.11293007170566   -1.96152615827629    1.13214098468165
H           0.29688919603590   -2.63770393714561    1.67434003029955
O           3.04609432761197    0.63671862568538   -1.15089176349770
H           2.59112003186139    1.48102111579717   -1.21887698076268
H           2.66657300961924    0.22800740050304   -0.36207326384082
O          -2.98517501109218    0.02916785436932   -0.29560048954997
H          -3.88013543773436   -0.31173400347637   -0.34335881646590
H          -2.39665298337389   -0.61706115342270   -0.81931161423326
O          -1.41177226086447   -1.66606041758154   -1.38227433745074
H          -0.92055847848513   -2.01258840891032   -0.62666861335557
H          -0.74783099863110   -1.10414353521581   -1.88600438826768
O          -1.82179782841854   -0.19105476751345    1.90011016357579
H          -2.37469613367851   -0.01951795314759    1.00956141560368
H          -1.24409835217782   -0.99337643077151    1.69363938917445
H          -1.11955091616922    0.60724141617356    1.98228877744789
N           0.37266784599592   -0.04463904053359   -2.44581393842566
H           1.33819553446982   -0.35809602435742   -2.41779489136396
H           0.31294648418423    0.72433782671985   -1.77870821784782
H           0.20574540226683    0.34010800623034   -3.36743801062062
