    26
        -50.45677432  Gyration_radius:  2.47297113725 Dipole_moment: 3.914
 S          -0.54106320738934    0.78111790028078   -1.39541869881787
O           0.51291769423475    1.31924032738225   -2.20172218889927
O          -0.75310867108591    1.50057010373431   -0.15762050725123
O          -0.24146118303830   -0.69728820039010   -1.05467123223519
O          -1.82324992231088    0.68080748953671   -2.19236783326716
H          -2.41613226636478   -0.04170316292649   -1.72468743617678
H           0.69083790707743   -0.78406412556726   -0.59604784964299
O           2.00568171704331   -0.75333815574717    0.05410258863735
H           2.58032148935228   -0.34167053894257   -0.62999005780510
O          -2.41226887026198   -0.06022453047420    1.31352988352129
H          -1.70907312602330   -0.58271848401553    1.76632009390828
H          -1.94034871741723    0.68958484653266    0.91704097211987
O          -3.03662162658381   -1.11681957289820   -0.95038683537077
H          -2.93961305691567   -0.76020239933849   -0.01219202926990
H          -2.41239314250863   -1.84459680466853   -1.02011025725564
O           3.08900752124764    0.72576554140856   -1.86699540161335
H           3.44361236194409    0.43559690690572   -2.70902651989541
H           2.19542789429980    1.07765778687483   -2.05478826796161
O           1.28453246440119    1.35321854919898    1.53455494758035
H           0.48516379841304    1.49602494738522    0.98320459926419
H           1.87814900450577   -0.04993404038161    0.72895283158499
H           1.81085382513123    2.15088756590594    1.45353789480418
N          -0.19276509324823   -1.23993588452833    2.36693213618740
H           0.33687329161408   -0.39001785448846    2.52794441679864
H           0.31894163128203   -1.78728083788986    1.68531043954025
H          -0.21422170740075   -1.76067738274881    3.23459431159468
