    26
        -50.45677431  Gyration_radius:  2.47291340661 Dipole_moment: 3.910
 S           0.54421396512110   -0.76688684930562   -1.40275166002350
O           1.75118165371215   -1.51540282128517   -1.21925205985816
O           0.73625354029203    0.66702620907368   -1.36357362087310
O          -0.48451786206609   -1.15143949186755   -0.31401712085755
O          -0.15480572329369   -1.18689669624850   -2.67709835706257
H          -1.16144167748738   -0.92704896094770   -2.57169601679234
H          -0.07790030819262   -1.01571354241541    0.63630818124916
O           0.61453419011545   -0.75984165624890    1.90446060241538
H           1.40922279378912   -1.33600438953627    1.84103394196515
O          -1.75594061607779    1.72541384852863   -1.21457410053123
H          -0.81503085682817    1.56967655415896   -1.39490428910012
H          -1.82029250666092    1.73349315423000   -0.23052945068590
O          -2.51698442087010   -0.53702479556901   -2.18199420431067
H          -2.36242221625300    0.40716299901290   -1.86410712321070
H          -2.69061956837337   -1.05512582272504   -1.39104193276931
O           2.77776760655829   -2.11191431793345    1.16618117433043
H           2.54799333347251   -1.90801421482198    0.23707616590779
H           2.92631914348858   -3.05824458315058    1.20251314020974
O           1.53475101570487    1.58001509366789    0.99557718727968
H           1.26595250151495    1.35579707027378    0.07859021338238
H           0.95555950695842    0.15175519439089    1.76549405453213
H           2.48610762363457    1.69962618187233    0.97332316304704
N          -1.52311588679383    1.61861274755841    1.49879130222646
H          -1.50538732107813    0.66978243215282    1.85298199197017
H          -2.10464984863979    2.17243194945778    2.11492966286998
H          -0.57674805169899    1.97876470770688    1.55827915468901
