    26
        -50.45383333  Gyration_radius:  2.48088991564 Dipole_moment: 7.384
 S           1.45376061718645    1.39645505470124   -0.30776785963597
O           1.11565938539959    1.74600918636722   -1.66084576983128
O           2.33397479630549    0.25705451759596   -0.18817273798762
O           0.22625575334452    1.15892050353934    0.50977636754918
O           2.15361626954131    2.64051061844797    0.33879502455766
H           2.25586125193658    2.39838464147138    1.27416496346923
H           0.22802522514466   -0.42442207496256    1.01784808913616
O           0.23699899244449   -1.36697989896411    1.30403686250837
H           1.03505130615337   -1.45305176715229    1.82980367492428
O           1.46492821777847    1.71216614620953    2.76856830094833
H           0.84508029882234    1.44012969260788    2.06235392605851
H           1.01410440250433    2.38083748243064    3.28821836250314
O          -1.34059487506599   -1.04179138276477   -2.01977423359968
H          -1.82869959648393   -1.44961782302177   -1.17749715514200
H          -1.42290411353006   -0.00167325502075   -1.90273169718476
O          -1.42907482499739    1.41307261795192   -1.50680112261889
H          -0.61485027251490    1.74389719355825   -1.94224142487958
H          -1.11900332518654    1.37566458210808   -0.57904633133173
O           0.98906397031783   -1.67554767496862   -1.30760302860093
H          -0.33816508150945   -1.28124120986792   -1.86640962732360
H           1.61106951285957   -0.93319839766818   -1.12636428977044
H           0.75656347919237   -1.97409303672402   -0.41054311109079
N          -2.34498501690794   -1.94131041678027    0.15219944782092
H          -2.65837454738892   -2.90320580097053    0.16096240707739
H          -3.08557618230215   -1.35800420921699    0.51997437688008
H          -1.53778562308661   -1.85896529892565    0.76909657559400
