    26
        -50.46273338  Gyration_radius:  2.39082439135 Dipole_moment: 5.173
 S           1.57002999546695    0.06193328524614   -0.29714006736716
O           1.12100842620631   -0.53299376659252    0.97210610416093
O           2.15963244121114    1.36388820042096   -0.11901275797508
O           0.42624212507701    0.12848034001354   -1.23000152668225
O           2.59502081976642   -0.90937223879613   -0.90753124790438
H           2.14515762951565   -1.80841504632034   -0.75532851101008
H          -0.52778857635190    1.41559361894896   -1.17838437749832
O          -1.18261430143973    2.15123587308826   -1.04685874310283
H          -1.24565786886661    2.60780456308410   -1.88658483220547
O           0.36822318169975    2.88168592000043    1.07738748110191
H           1.17632785539394    2.46626657002225    0.69398266247336
H          -0.25916816684701    2.93108807632940    0.33351607348683
O          -1.40033512893138   -1.65130412061557   -0.84831218289809
H          -1.85085160425060   -1.75143972769619   -1.68911021906148
H          -0.66325002110344   -1.00388331886300   -1.00631568146005
O          -2.44128330411195    0.37481248885925    0.65485020461725
H          -2.18632581409440   -0.46452233358700    0.21799210737525
H          -2.25710151221184    1.07819383628641    0.00943433586772
O          -0.50904877579900    0.83498017994771    2.23231642688539
H          -0.17930482062883    1.77601812811022    1.89935152384328
H          -1.37985858824098    0.63379389857424    1.70514763781429
H           0.20651438709423    0.19378703228793    1.79655129567655
N           1.24355830073665   -3.03172366946324   -0.28984397581591
H           0.27177979166714   -2.84998371026629   -0.52417381935527
H           1.33152769254125   -2.90570429135686    0.71130213374969
H           1.46756582561965   -3.99021977784629   -0.52534004438696
