    26
        -50.46633712  Gyration_radius:  2.38592200727 Dipole_moment: 5.207
 S          -0.23434590244936    1.46140325536963    0.70756385065112
O          -0.95930608067165    0.28852506808451    1.20691769321764
O          -1.04224709315882    2.28068994841752   -0.15329795719749
O           0.97739219802418    0.89546045583597   -0.14604296084920
O           0.45036398526589    2.15374928330855    1.79178819755015
H           1.56991121307132    1.25327862619028    2.05388630305669
H           0.68509677520533    0.63133053414665   -1.05660748475755
O           0.28599276509429    0.17044243692527   -2.55807693765229
H           0.65696363294979    0.75326411052714   -3.22209264544340
O           0.85267681785468   -1.54254761084373    1.61516234262376
H           0.06580737613261   -0.95046818120038    1.61148323025633
H           0.86085436525914   -1.90116099800877    0.69912331290198
O          -2.29398111862866   -1.29168954675293   -0.36966798914580
H          -1.84094303448073   -0.67291181028027    0.25627188653535
H          -2.98166258545628   -1.72765112914871    0.13509588741922
O           0.30302964147734   -2.17655941671496   -0.94046620913001
H           0.53194558410717   -1.53268987797446   -1.62114157059531
H          -0.65700895441684   -2.08316114499140   -0.82513978772348
O          -2.15595070759894    0.84762002629937   -2.10420174165640
H          -0.69661817336272    0.39182157119904   -2.50995260961401
H          -2.47003169102874    0.06619104389548   -1.62102297291619
H          -1.90108350567143    1.49925482626726   -1.41691101454895
N           2.35006118965748    0.48787738920442    2.12344275030509
H           1.82745808196333   -0.45125109113228    1.90482634893823
H           2.78090591092168    0.47676602235687    3.04247672153669
H           3.03471929990880    0.67241618898459    1.39658335626357
