    26
        -50.46776448  Gyration_radius:  2.5258301422 Dipole_moment: 1.483
 S           1.47846606961345   -1.47855081373572   -0.00838228815261
O           2.18521754049548   -0.30716330256652    0.44946059924937
O           0.78556260937025   -1.20983022393817   -1.27115849008348
O           0.58685258651233   -2.06784488615856    0.97101765400484
O           2.57089309188469   -2.58147151651477   -0.32354385637935
H           2.04498162717049   -3.37139783655089   -0.39668968140085
H          -0.79453221117412   -1.28002714730473    1.15779417028746
O          -1.64509644740386   -0.77304145138977    1.23413521551659
H          -2.09024811656381   -1.13076679093713    2.00417227547963
O           1.57679198710895    0.82773480694937    2.74641332536148
H           2.35248152874360    1.33029333324393    2.99981593266029
H           1.84154701560330    0.29915676004196    1.96142000181635
O          -1.91728398250624   -1.00302434581781   -1.52304433223933
H          -2.07585255646049   -0.93361135498230   -0.56848712256112
H          -0.97495194604955   -1.23595542952155   -1.59246458541046
O          -1.89534301133204    1.45905506637572   -2.47703554959343
H          -2.63481705402328    1.91188229528187   -2.06843431768728
H          -2.00485098989747    0.49743218418448   -2.25440883610099
O          -0.50428151752718    1.69206430490539    1.30651591690473
H           0.10295302632040    1.58697493158803   -0.12231877011422
H          -1.06083034397212    0.89018013595260    1.33956512698357
H           0.22177227249353    1.50995029970049    1.94110598215161
N           0.40736781580869    1.40816131239642   -1.13690244210405
H           1.20500507475066    1.98316451681023   -1.38311639038022
H          -0.42278378642985    1.58568479334495   -1.76032483719326
H           0.66097973746891    0.39095036864399   -1.22510472101850
