    26
        -50.44736159  Gyration_radius:  2.56281476174 Dipole_moment: 3.097
 S          -0.09505679456944    0.37712516419366    2.26866324022615
O          -1.39413223793575    0.95316021713195    1.90117559397143
O           0.91212678944894    0.61955210512355    1.26812843154303
O          -0.23748640872160   -1.02580820122015    2.62374767021400
O           0.35599364189248    1.13135592589886    3.57627175057809
H          -0.30443083875512    0.85628652497282    4.20360860878364
H          -0.56514342992003   -1.89184498809661    1.35967040245131
O          -0.87953367059277   -2.31948843504735    0.51131666474208
H          -1.22488298749478   -3.18000393149763    0.75720037769531
O           0.52800147948486    1.89081278172862   -1.08767037895758
H           1.22038613372171    1.43783798507552   -1.64127260010659
H           0.67507124936870    1.55280823435604   -0.18510563211112
O           1.77450295610317   -1.47095267170607   -0.28593988919547
H           0.95540279230452   -1.97682837532553   -0.25937457076457
H           1.63804586217010   -0.73630347668883    0.33460593738517
O          -1.67468221081729    0.97114755264271   -1.90611313040519
H          -2.23466226790396    1.73806794963441   -2.04134517444898
H          -0.75718430417552    1.34351838109507   -1.59966009350921
O          -2.44593991639115   -0.32327530627102    0.06052897542606
H          -2.07846426152466    0.25260152251442    0.86376171561147
H          -2.13911383823047    0.21540810142723   -0.83127895298684
H          -1.90648378442637   -1.17599061886533    0.10347250297552
N           2.30093596804100    0.39471934369540   -2.42997747548876
H           3.26383741917237    0.70536387724990   -2.43331452630708
H           2.08123234097854    0.04813971169280   -3.35487668353188
H           2.23166028877550   -0.38740935370700   -1.77622277380337
