    26
        -50.46407693  Gyration_radius:  2.36419714542 Dipole_moment: 3.020
 S          -0.08967503032168    1.33344660906846    0.41907440167347
O          -1.48620145233405    1.71662331501611    0.47782987007368
O           0.31343016135610    0.98391012462346   -0.94442940856152
O           0.17342877341471    0.20588583590737    1.32689510258274
O           0.78003881229907    2.51861237222397    0.89191279495378
H           1.70747958284668    2.16304001495801    0.74497725891661
H          -1.27085187656819   -0.47151347384660    1.58881399976476
O          -2.20130041078596   -0.80522867704997    1.52203715283141
H          -2.73236899917507   -0.00190331545948    1.52620864765961
O           1.83020662100856   -1.76864841205474    0.92663643069783
H           1.26110392862400   -0.99644155856497    1.15557402925508
H           1.68667594894917   -2.41738413199539    1.61747670004110
O          -2.34739559439071    0.76111608305585   -1.78543672874554
H          -2.15970521964010    1.24004459396186   -0.93948253305827
H          -1.55733933430101    0.91537528448176   -2.31434233445518
O          -2.12114398408179   -1.59143801214478   -0.88255810577292
H          -2.21738425347907   -1.38597562296662    0.13036210720614
H          -2.33086519994000   -0.68422802002499   -1.34470439504129
O           0.33306554662571   -1.59082622347024   -1.31491204834789
H           0.40241726580328   -0.60342532298726   -1.28188276066070
H           0.91613510964485   -1.89347187051840   -0.58889115116181
H          -1.07974345415337   -1.72832730823044   -1.06964565903830
N           2.91707848551390    1.20704164577466    0.18250011151040
H           3.03673569583419    0.33791724214351    0.68918511340327
H           3.83204803873999    1.56109492953032   -0.06578551084099
H           2.40413083853612    0.99470385859360   -0.66741311485131
