    26
        -50.46407695  Gyration_radius:  2.36413114802 Dipole_moment: 3.023
 S           1.05297600979610   -0.48215261645270    0.78737473054167
O           0.67754059917579   -0.39326059191095    2.18439847058519
O           1.10690591500871    0.84049979152588    0.16163280004344
O           0.11432838326039   -1.34759957389486    0.05611079971237
O           2.45255852235597   -1.12564204662965    0.67978114861411
H           2.62721649322667   -1.07173762121444   -0.30756944536690
H          -1.21867241152981   -1.39261844627292    0.96989833547733
O          -1.96283536298765   -1.19398871063515    1.59300915222082
H          -1.53876490281062   -1.18019702932088    2.45749970672151
O          -0.32084951724493    2.00971640783218    2.26596582207189
H           0.26575771088080    2.42852363813403    1.62701255752253
H           0.08966491704884    1.12077038428045    2.41265267501382
O          -0.70480691950773   -1.03727995571044   -2.40064244616628
H          -1.41022754922644   -1.66707189299566   -2.55716665903361
H          -0.35313512915424   -1.24017310034667   -1.50180700459778
O          -2.32894819840503    1.22459888069266    0.94231456667696
H          -1.60299279912634    1.65532507396191    1.54908518468049
H          -2.31407336707642    0.22083967069310    1.20603755862001
O          -1.05274608679896    1.35443397866411   -1.19416766114701
H          -1.10135295502197    0.58176747247103   -1.79373231709705
H          -1.90484850894401    1.29088253108473   -0.03445808540018
H          -0.17390222195705    1.25597076109406   -0.74825294589393
N           2.47435845937338   -0.60447845675184   -1.87325411838916
H           1.73128503769375   -1.06926115817398   -2.38153922980699
H           3.26450831560143   -0.49033104791422   -2.49522551964569
H           2.13105554639495    0.31246367777206   -1.60495805592850
