    26
        -50.44736157  Gyration_radius:  2.56291252647 Dipole_moment: 3.096
 S          -0.41128532577244    1.16577799591121   -1.94161885933007
O           0.61864436925727    1.24797177558131   -0.93819830540126
O          -1.75832658424194    1.23295544984403   -1.36253750768734
O          -0.28425534661195    0.00882912529538   -2.81338281318745
O          -0.27209488565149    2.43981526165441   -2.85795603231347
H          -0.91886634225425    2.27050022917954   -3.53501769462399
H          -0.28374240075200   -1.31943732632919   -1.98198249448891
O          -0.40840099728936   -2.09589812987966   -1.36314197698997
H          -0.58441537843884   -2.85681582721621   -1.92014759477659
O          -1.63483243912078   -0.24694795096680    2.15521801958790
H          -2.32962910403003    0.25440166493339    2.58643019927520
H          -0.85690898698417    0.42145172383252    2.00630565385493
O           2.06896277468262   -1.00080202614546   -0.33123048805977
H           1.71302344606548   -0.14281047630310   -0.61513879398492
H           1.38018508267375   -1.63999297291052   -0.54221041848677
O           0.21883260804619    1.41213064346290    1.73145043948477
H           1.04683432681717    0.96482075404873    2.05604592673622
H           0.33981691837235    1.48298590551449    0.76667283346036
O          -2.31163376889545   -0.85210338757284   -0.15001716497658
H          -1.60871891715809   -1.47053675264778   -0.52891511921558
H          -2.03600821106313   -0.63112416094517    0.87692795244174
H          -2.16330636437171    0.05278234021687   -0.67037945242967
N           2.40399979761391   -0.00605865853527    2.36195322266952
H           3.27198546285937    0.50216513636217    2.47180503733291
H           2.43605230829953   -0.47864593864744    1.45663788104106
H           2.36408796798471   -0.71541438777153    3.08242756006146
