    26
        -50.44895906  Gyration_radius:  2.51841556841 Dipole_moment: 1.838
 S           1.40929031281178   -0.19677710663685    0.81888138647414
O           0.88834161862913    1.00253752037575    0.21493365653864
O           2.24916670523999   -0.99419282923300   -0.01700210266899
O           0.22206761572499   -1.04837156434100    1.32689493028237
O           2.14268743705873    0.15080041513175    2.11786580782872
H           1.59499627742016    0.91041090338395    2.51243625703588
H          -0.64004200984071   -0.86196902138878    0.80555334613879
O          -1.98118596805192   -0.60294136893807    0.16375263287871
H          -2.52113705471471   -1.39199396689556    0.25523750136554
O           0.53645624185405    2.03748609218427    2.66756598239699
H          -0.33781675069444    1.63681169570224    2.86602420710960
H           0.52274116658203    2.20947547103774    1.71520709043945
O           0.72458892018146   -2.44553705591289   -1.68387092539846
H           1.30806962517235   -1.96331689975253   -1.06779695413036
H           1.30354796885848   -2.90985453289867   -2.29086103412662
O          -1.74093058615727    0.59035075039943    2.74282446228408
H          -2.01302226125044    0.47927840452415    1.82112950542275
H          -1.40610117447335   -0.26468996736144    3.02519065801204
O          -1.29761273413784   -0.71810421096446   -2.27695344228922
H          -1.75198239900904   -0.56082356146699   -0.83702609112017
H          -0.77738811363852    0.09174928207954   -2.50451524103033
H          -0.63361178531010   -1.42730176759779   -2.18982225318998
N           0.35848570973733    1.38013732073099   -2.60556550255827
H           1.20267915520705    1.22656405095849   -3.14251655506623
H           0.61521424578964    1.35927638782222   -1.62002106906301
H           0.02249785698308    2.31099554908513   -2.81754624360587
