    26
        -50.44895897  Gyration_radius:  2.51886697564 Dipole_moment: 1.836
 S          -0.99500808971795   -0.73101376464033   -1.08805760018986
O          -1.39707482749218    0.28204285323232   -2.01098661249439
O          -1.24492093386013   -0.44203779462316    0.30071801690397
O           0.51283313230709   -1.02798868986896   -1.26560401438707
O          -1.63886611117884   -2.06838947639122   -1.46591353842272
H          -1.51860809139250   -2.64150355802538   -0.63535803780076
H           1.08469068807382   -0.57698087935529   -0.54516799879295
O           2.01222963464555   -0.03249149545012    0.51426398217914
H           2.88758075015914    0.06667768740047    0.13162331508597
O           1.50342184210419   -2.82123987961657    0.82006717266710
H           1.68115924635634   -1.90321763078615    1.06816337652423
H           1.69444870577402   -2.88348257560949   -0.11938377154894
O           0.43605713714489    2.24379987142929   -2.03084196779353
H           0.10804055433461    2.95398918281182   -2.58513617149956
H          -0.23051265540356    1.53253391979298   -2.07842419132418
O          -1.18372780382035   -3.07612388894579    0.81838553177888
H          -0.21162859050202   -3.18028986513895    0.91048152251006
H          -1.37525858202309   -2.19398320260527    1.16761176038338
O           1.19609454670916    2.36898858923656    0.58312599198876
H           1.67514860978107    0.92961905956111    0.64244508252661
H           1.00556866711298    2.46664084667566   -0.36849914982900
H           0.31151661875306    2.39549141986046    1.02466923049857
N          -1.32608087489492    2.18685225084450    1.51054188253395
H          -1.53946560747313    2.15202155676861    2.49927070299823
H          -1.41616292631302    1.24233951829630    1.13985461652954
H          -2.03147502918707    2.75774594520659    1.06215085900253
