    26
        -50.47319297  Gyration_radius:  2.45095869841 Dipole_moment: 1.785
 S          -0.04181850110966   -1.47545604729520   -0.50655155708296
O          -1.16791049671560   -1.08704197538919   -1.31787821734133
O          -0.37022169326233   -1.51401059485366    0.91495025710742
O           1.11892245662967   -0.59846875132935   -0.74933822499523
O           0.40035180264808   -2.92256931232341   -0.88225463782287
H           0.76353426473568   -2.82335823163619   -1.78232943260572
H           0.65289214234266    0.97590431636868   -0.74337487107442
O           0.38261747931573    1.92547029084678   -0.72095579487832
H           0.88410560902584    2.36212241678756   -1.41122226529806
O           0.26747891934905    2.01171663281889    2.05273991538193
H           0.37809958714181    2.25838924695077    1.12024598907019
H           0.90784395217614    1.27693195169419    2.19499900340633
O           1.70148806264105   -1.90685264531465   -2.95580395254975
H           2.63650600602318   -2.12022654348065   -2.99726974212719
H           1.59722363219700   -1.21942703812353   -2.26876706982930
O           1.73610265772689   -0.22540290626494    1.94443484335121
H           0.99466615088323   -0.83289985833852    1.76329648778190
H           2.18230169747577   -0.15980191181735    1.09410005167304
O          -2.30317328424762    1.24362523512923   -0.82107933695631
H          -2.05503622915580    0.35618205492250   -1.16134707812385
H          -2.23033463916590    0.88959421599662    0.71879624186647
H          -1.49346724340825    1.76814769422775   -0.92971638035706
N          -1.86417723380831    0.54094838398808    1.66039442657519
H          -1.39299455376308   -0.37538187576617    1.45846345036934
H          -2.59612708206849    0.44158315764206    2.35399778512199
H          -1.08887346365400    1.21028209454920    1.97147008934516
