    26
        -50.46633713  Gyration_radius:  2.38592106373 Dipole_moment: 5.211
 S           1.53675318541165    0.57511047491155   -0.01013912746502
O           1.87731711562825    1.04236338745339    1.30543775875445
O           0.46292688874542    1.36293452447500   -0.62385021514869
O           0.97421695484121   -0.90240265466667    0.12223018434939
O           2.64965431778199    0.39842713113568   -0.93424149548704
H           2.10641370555968   -0.58926751582236   -1.86259885598021
H           0.38805777647693   -0.99602215443380    0.91725162845681
O          -0.58557345263062   -1.22779278812990    2.19163440961374
H          -0.17915843652639   -1.78763648814647    2.85473184305614
O          -1.75485161306333    1.89597470379418    0.62550731699916
H          -0.89692034760086    1.75445268373724    0.15237333827068
H          -2.13494775470203    2.69462161039733    0.25760488079403
O          -2.26211804788558   -0.77093478380698   -0.06802570808153
H          -1.83227395262172   -1.20270194500781    0.67966133372304
H          -2.32125151026721    0.16439854375577    0.18778264378752
O          -0.76930519658565   -0.26482332463598   -2.24726287770467
H          -1.38750401551317   -0.64336315607500   -1.58208393668942
H          -0.36898982635224    0.49568965593858   -1.76656961309128
O          -0.27736814924077    1.23934323334444    2.86040774314993
H          -0.55131875018369   -0.28960985924371    2.55938507267797
H           0.59209294086152    1.30545996434677    2.41135379644150
H          -0.91377082631595    1.66616852306549    2.26424996699136
N           1.56404423394871   -1.32915850036748   -2.46078892161166
H           0.52226285871302   -0.98736727454895   -2.43354035005666
H           1.63923944003086   -2.22637395395024   -1.99123367016640
H           1.92237246150556   -1.37749003751528   -3.40927716558630
