    26
        -50.45278035  Gyration_radius:  2.61021042539 Dipole_moment: 4.705
 S           1.05169265893218   -2.44838753729867   -0.69451952816046
O           0.51439402166265   -2.55029198619665   -2.02795911049732
O           0.12409495514704   -2.73859584739919    0.37288525848407
O           1.70233944828495   -1.14142621650201   -0.46702290426538
O           2.22202197400426   -3.52153759076323   -0.61310497267651
H           2.29537085955085   -3.77276781902075   -1.52782207351241
H           1.57876937503556   -0.25146409504384    0.84326163395064
O           1.41283799225653    0.37425125230411    1.59901205017852
H           2.16481402256078    0.28469671482846    2.18562250992887
O          -2.08551850157207    0.31575190447027   -0.18613719307136
H          -1.36966184743552    0.19466017313489   -0.89746305296241
H          -2.04164963090000    1.38391109912879    0.09590351033603
O          -0.13026756669097    0.04598824553744   -1.83801391704755
H          -0.29774281864023   -0.68882501902718   -2.44298283396729
H           0.62793224160165   -0.31266890068796   -1.31211941116967
O           0.83732628834587    2.38252512725170   -0.22043670362250
H           1.13871167460955    1.76951188238040    0.47284225907290
H           0.77465637716844    1.85509885185169   -1.02341895364363
O          -1.01622760274537   -0.85227907950755    1.75158956661508
H          -1.72568984423489   -0.20990197827502    0.65356498665598
H          -0.67457710186937   -1.67751760239148    1.32556273209447
H          -0.21416883501963   -0.32187452852198    1.91564776784791
N          -1.80713795984142    2.73182867094900    0.45255420690247
H          -0.80069800892696    2.82456626356948    0.24110064958076
H          -1.95687682458681    2.91785049085453    1.43529246981207
H          -2.32474533668895    3.40689752439906   -0.09383895694555
