    26
        -50.45100458  Gyration_radius:  2.52690946408 Dipole_moment: 1.979
 S          -0.67442754098910    1.45313695389087   -0.01961594107390
O           0.68849183539507    1.03840525949877   -0.25312627787947
O          -0.86426336038827    2.16203792232140    1.20734853095934
O          -1.59239399993724    0.20280195708961   -0.06766839477369
O          -1.19302563377337    2.26427800484404   -1.19327529705772
H          -1.32660304401549    1.59338869533621   -1.96065188255306
H          -1.32616528458792   -0.46539404469076    0.64835728070835
O          -0.90956418705112   -1.37540495159576    1.81485520639096
H          -1.68185483633694   -1.67054676357630    2.30202434900709
O           2.44353125594263    1.01516583455559    1.79391624752416
H           1.89785124626878    1.03093410261843    0.98492912601834
H           2.80037821231850    1.89946787357965    1.89255270430663
O           0.17609185657431   -1.42730758758400   -3.03668300410010
H           0.46429578556754   -1.66417568631863   -2.11120528187992
H           0.96937574694740   -1.15153718057294   -3.49868540365359
O          -1.61787417589371    0.48089279491177   -2.91890431094858
H          -2.37459812398949    0.03281049170645   -2.53263001220317
H          -0.90808568643702   -0.21786796820069   -2.98962034268869
O           0.14342853888445    0.56281653571756    3.14232596798621
H          -0.29719138986613    1.28276314418043    2.65716503319356
H          -0.44551569198681   -0.70576664593583    2.41057351137195
H           1.08261145288394    0.62630558042697    2.87596763304781
N           1.05579525433648   -1.80248639724072   -0.54884677080656
H           1.97139918495080   -2.18795331494388   -0.35354216398861
H           0.41440606904821   -2.17786967892329    0.13989652402394
H           1.10390649613151   -0.79889492111155   -0.38545703096012
