    26
        -50.45993511  Gyration_radius:  2.49384078447 Dipole_moment: 5.702
 S          -0.69276489353090   -1.42961938841907   -0.18146625734306
O          -1.90106703811665   -1.36588587851255   -0.99563141997711
O          -0.85011503773188   -0.75651469729872    1.10246445481184
O           0.42963278421640   -0.86955011407910   -0.93816885276133
O          -0.38664889006420   -2.92794547303233    0.08251116154909
H           0.24389309363283   -2.92080015532314    0.84810236498018
H           1.22976775355693    0.32851602970973   -0.36125824875881
O           1.73398502368255    1.14837279896786   -0.08525133512607
H           2.48059743668852    1.20519702371946   -0.68543409470350
O           2.85878747636628   -0.28468620139153    1.98433166115793
H           2.79359952146058    0.19080005611780    2.81418832001289
H           2.44452261762779    0.28241652057048    1.30657323831200
O           1.01893281888873   -2.31231011300293    2.18093549423759
H           1.83611220482491   -1.79011224961665    2.06894925466862
H           0.30464221481335   -1.65386469556856    2.17310168778530
O          -2.15058261878072    1.51797191120531    0.86406326330892
H          -1.73715711594308    0.62877542008667    0.95481048793635
H          -2.27248593598208    1.84357385469678    1.75731563175127
O          -0.51751301110458    2.40785317313400   -1.01462582510159
H          -0.94234951749667    1.33965082932372   -1.99362976604380
H          -1.17682683306872    2.24937011072140   -0.30004632656325
H           0.33457089847607    2.11568113671697   -0.63451545451772
N          -1.21646309140856    0.49024790245170   -2.62251399086071
H          -0.36697519864563    0.09243112170170   -3.01606031325367
H          -1.88245545862755    0.74887554865997   -3.34353739143637
H          -1.61563919374180   -0.27844447155746   -1.96520773408361
