    26
        -50.46633705  Gyration_radius:  2.38609842294 Dipole_moment: 5.209
 S           0.11299509361103    1.63256294980959   -0.13137836775243
O          -0.49620116755610    0.85406732602694   -1.21464570691730
O           1.47450511505158    1.99469989980755   -0.41471136315166
O           0.10951719700291    0.68677597267868    1.14248028484774
O          -0.76330980958884    2.71812763774310    0.28960276770881
H          -1.78686181886662    1.99540989723428    1.04016288192772
H           0.86159438738609    0.04029460979732    1.11413016415782
O           2.06052037359729   -1.04960816506091    1.13866582717930
H           2.70262065448799   -0.86073285734990    1.82445139042487
O           0.66864485421440   -1.21849210414657   -2.26902264064176
H           0.23191039099978   -0.40038267678446   -1.92281308081032
H           0.34387340556873   -1.33846361225596   -3.16224432672284
O          -2.29774734225765   -0.65148161809061   -0.07902275821375
H          -1.74218422806760   -0.09603766436127   -0.67285597539802
H          -1.69604500563884   -1.39520171628191    0.15056387014695
O          -0.24384143666713   -2.37679319575140    0.11478278048442
H           0.49260953893680   -2.13223463503648    0.68761444675613
H           0.07476493218251   -2.20046656747652   -0.78578423520863
O           2.92189858487280   -0.13224669181218   -1.10710644606830
H           2.32584729461727   -0.58626275338010   -1.72458685290591
H           2.52535111258852    0.75233334360690   -0.95751367567397
H           2.49685737875016   -0.78791595119351    0.26806168999427
N          -2.46326831673125    1.31687240918976    1.57046821869963
H          -2.46694652915501    0.40667124746352    0.95862312901230
H          -3.39262635059544    1.71417486842436    1.66439011788831
H          -2.05447832905191    1.11433004733688    2.47768786043059
