    26
        -50.46407696  Gyration_radius:  2.36406907713 Dipole_moment: 3.020
 S           0.80637858172260   -0.10805614416699    1.14015769977942
O          -0.01209694399361   -0.52743250114081    2.26032104750941
O           0.38101959818918    1.19412133217066    0.62330683561518
O           0.76456067334328   -1.11414715578507    0.06728298679947
O           2.27474000148471    0.01132379266341    1.60280299684684
H           2.72126912089434    0.36634924137190    0.77628897715334
H          -0.57133038696037   -1.97887539391190    0.34978332920692
O          -1.47154616846051   -2.29649229243734    0.61518354486606
H          -1.44137083140580   -2.28892751897033    1.57767742133918
O          -2.06314542029617    1.05088263262160    1.97820622221035
H          -1.59905286359051    1.82726518556468    1.64702785325125
H          -1.33277245214065    0.44508461127084    2.26079742567808
O           0.80382001927185   -0.66024263424912   -2.50091586431518
H           0.62689315906342   -1.48910115818982   -2.94876633090886
H           0.87584626030491   -0.87889030528866   -1.54191750336151
O          -1.11644466278211    0.94955857499025   -1.48984892082117
H          -0.52805252712641    1.16828346878477   -0.72392054142711
H          -0.55126528255204    0.40412160222602   -2.07431011017130
O          -2.78319492932624   -0.24401613530202   -0.07233791109555
H          -2.64236646105048    0.32042367970528    0.78937370368669
H          -2.15042899462817    0.23368051531243   -0.78567078143877
H          -2.34410479489482   -1.15778612262293    0.15093002603710
N           2.89559950310703    1.05665964681043   -0.70177065143268
H           2.72318465893099    0.43196857762850   -1.48067236114805
H           3.67123288028630    1.66081828309780   -0.94186190955825
H           2.06262825257104    1.62342623787425   -0.57714717426039
