    26
        -50.46633700  Gyration_radius:  2.38610484542 Dipole_moment: 5.209
 S           1.27613540292057    0.99377346690512    0.28242653984636
O           1.35992605131761    1.27411254512264    1.68936325283869
O           0.05310224713611    1.53035240256616   -0.32330413756036
O           1.20193342685132   -0.58018910800947    0.09695614039014
O           2.44863323513476    1.34150170895418   -0.50997296340383
H           2.31137409414160    0.43839496320551   -1.64967673395886
H           0.61730052546174   -0.99713705685776    0.78156151556940
O          -0.32518620598780   -1.75199751756195    1.86222683663941
H           0.18544566389857   -2.28832308334148    2.47041406382089
O          -1.89674890397534   -1.37464002537622   -0.48424748261170
H          -1.40637004225260   -1.79688407195619    0.23102930304278
H          -2.26620934130695   -0.56840709849595   -0.08785867507097
O          -2.30367643274888    1.13224369152177    0.70207262949240
H          -1.41335191472266    1.34465635713291    0.32509898790439
H          -2.88670473989684    1.84179053888618    0.42935603587425
O          -0.48526957856222   -0.03361884680437   -2.33962077840138
H          -0.37932129583122    0.70045716898008   -1.69173174934283
H          -1.00016149976865   -0.70056621416060   -1.83174095716811
O          -0.85238956779543    0.51374931274276    2.96449464902506
H          -1.54717664159835    0.84247412133143    2.37131101495787
H          -0.61197897098095   -0.93679151205036    2.38192688179641
H          -0.01831155132114    0.92124514419986    2.64769423717182
N           2.07320524558849   -0.29739819582348   -2.42494294891081
H           2.49522766656133   -0.05193901023677   -3.31490526076405
H           0.97766650821045   -0.29124846774409   -2.47567477356501
H           2.39290662950803   -1.20561121311589   -2.10225562762026
