    26
        -50.46407690  Gyration_radius:  2.36403683368 Dipole_moment: 3.025
 S           1.15327504661753   -0.01264252669092   -0.79293386309616
O           2.18440916676345    0.77094662339153   -0.14227840432519
O          -0.00632893849223    0.81085368620805   -1.14062025108258
O           0.73711813207136   -1.13121409660794    0.06758867841986
O           1.72343065519445   -0.61904199796449   -2.09341809819700
H           0.91438522256515   -1.07218126910415   -2.47929172286147
H           1.19632468819431   -0.71143228554642    1.55931960933197
O           1.43712288385677   -0.22658714177689    2.38916641827611
H           2.25648582859585    0.22457352355521    2.16009726920847
O           0.82417510216489    2.88028099026151    0.54862273271089
H           0.22800476781453    2.91683808079883   -0.20707767606032
H           1.48581268981647    2.19026332029902    0.29098677253318
O          -1.66796401584470   -2.11526768909235    0.29205231076426
H          -1.66317456403355   -2.74246079261793    1.01683382927715
H          -0.73111635077571   -1.83163804766188    0.17120763592976
O          -1.92195950609267    0.55798789552172    0.60148379783965
H          -2.05553026247158   -0.41172409835935    0.61369075417380
H          -1.28541679278681    0.70226423912183   -0.14326598773724
O          -0.38631066981835    1.52657782793424    2.30962999076050
H           0.33202635850402    0.79519940864415    2.47400473528373
H           0.08629829414838    2.20766518018945    1.68182876224754
H          -1.13025364955216    1.08956193839661    1.68373640581797
N          -0.65983548649768   -1.46235813793326   -2.72332417974010
H          -1.03957359069966   -1.68013632314348   -3.63576397207492
H          -0.97174454704758   -0.53599780397851   -2.44925773109011
H          -1.03966044216320   -2.12033050381990   -2.05301783632864
