    26
        -50.46044997  Gyration_radius:  2.4558262298 Dipole_moment: 6.769
 S           1.01513240020309    0.87186373395776   -0.80822967576440
O           1.40430524083441    1.97122360990024    0.02687627834416
O          -0.43152815013283    0.78600749950170   -1.01009188346188
O           1.42995080980023   -0.48225584879190   -0.10348893197021
O           1.73129475051527    0.79552251587190   -2.08380305414675
H           1.51088346605040   -0.54206953379926   -2.45676345148660
H           0.70577493118761   -0.81875244859275    0.49157718420150
O          -0.45591244037361   -1.58935227657011    1.30154153486398
H          -0.05550320624106   -2.09096415721711    2.01362148689431
O           0.95713114384882    1.62687840477773    2.60669597285110
H           0.97465921558016    2.51103167752496    2.97736381000784
H           1.16877458530822    1.74092316013979    1.65359625959923
O          -1.03797532694066   -1.69748095181032   -1.41668152077524
H          -1.00117088937649   -1.99632877211390   -0.49583899082888
H          -0.99988467380704   -0.71248997594969   -1.33536420011849
O          -2.27365814449492    2.00289602424217    0.46996509959369
H          -1.54547825330545    1.67348360890982   -0.09630146876099
H          -3.08004481774683    1.86715047530453   -0.02974507341120
O          -1.45022647635842    0.43270180389017    2.50392911740295
H          -0.59650610264033    0.87601081564502    2.69706343129638
H          -1.88767767602123    1.02091830127076    1.85571293102956
H          -0.93479116312688   -0.81685745472534    1.76085472797682
N           1.28062723938631   -1.62636748045539   -2.61967788231989
H           1.98915512188453   -2.16673285566123   -2.13238363416020
H           1.26473057841458   -1.85287456337358   -3.60910601124026
H           0.31793782754599   -1.78408529184949   -2.16132205562290
