    26
        -50.46633710  Gyration_radius:  2.38590648064 Dipole_moment: 5.210
 S           1.25612797749960    0.90328222484513   -0.54620617095394
O           0.92927656058742    1.43681636654740   -1.83985830171710
O           1.35751349796623   -0.55966410124212   -0.55290113161482
O           0.06898116620637    1.25485806746610    0.44587045819532
O           2.40327252290817    1.50389507035037    0.12239712710613
H           2.10735981637225    1.22000907434445    1.52403761491013
H          -0.81351888890033    1.15025622432608    0.00466675974311
O          -2.29130982699754    0.99638393322952   -0.64182373223728
H          -2.71911041564244    1.84527757928465   -0.76278967625453
O          -1.76116467876523   -1.39886975421699    0.81032728329779
H          -1.46872716218150   -1.81480546311318   -0.01742126780780
H          -2.15809749311008   -0.56310767957345    0.53798006087105
O           0.71558832987873   -1.32500500028023    1.85654795239001
H          -0.25646645917253   -1.36200025987938    1.70943054689966
H           1.07076738889756   -1.21001594361052    0.94530348002636
O          -0.48553549007873   -2.07226021706445   -1.59192249360222
H          -0.09356041543152   -2.90727270196809   -1.85049344512532
H           0.25451548233835   -1.51551887506664   -1.24236909326086
O          -1.22785683445498    0.25809150497454   -2.86718840035549
H          -2.00530597204792    0.69462357102045   -1.56042452775643
H          -0.38791287145394    0.72908920476239   -2.68077046725194
H          -1.05136053702031   -0.67774959397027   -2.67831817719755
N           1.74425518857403    0.93937744020609    2.51839645885307
H           1.25681505194779   -0.03082343720104    2.36431549467226
H           1.05202607192340    1.62543259553956    2.80360500923815
H           2.50342799015799    0.87970018031098    3.18960865890075
