    26
        -50.44999457  Gyration_radius:  2.45077985287 Dipole_moment: 4.937
 S           1.31373417094922   -0.35813360999828    0.86357171541913
O           0.75640669405845   -1.14402069158898    1.92131027168611
O           0.96446784348069    1.04154097809531    0.87639740006369
O           0.87117495097428   -0.94539542199161   -0.49563779108164
O           2.83426711257259   -0.49649215161290    0.81670456067108
H           3.10046489586775    0.12851209668848    0.03218070529572
H          -0.01914872774902   -1.44593277956608   -0.35846164675880
O          -1.32273321246929   -2.06875294280897    0.02700878114879
H          -1.09759160221643   -2.50844503961029    0.85119377212467
O          -1.10712514218710    0.64607663854757    2.80858780112817
H          -0.62206633765417    1.38995584120184    2.43765965595594
H          -0.48958722737106   -0.09915451502789    2.75375414513058
O          -1.53018644467474   -0.71757750136418   -2.54472884000934
H          -1.47543664319981   -1.45394852040871   -1.92569623313925
H          -2.46490808703700   -0.53849113657884   -2.67207865562631
O          -1.08229475186493    1.48148543304025   -0.90322543622714
H          -0.31109026521226    1.40020531902823   -0.32094735908960
H          -1.00254795441291    0.79553963966912   -1.58835901713466
O          -2.65487721713886    0.01011363474322    0.69004055187211
H          -2.30473066562108    0.24374348474564    1.57464356275904
H          -2.26990914278468    0.68316967998989    0.08487832444827
H          -1.92777826040197   -1.28677301853204    0.29123679772826
N           3.03203032077782    1.13724676949896   -1.12965652763242
H           2.62081263715927    0.67538382188823   -1.93081650626246
H           3.84494322876044    1.66165887397512   -1.42544071608329
H           2.34370978696187    1.76848509803816   -0.73411932647825
