    26
        -50.46044995  Gyration_radius:  2.45577086202 Dipole_moment: 6.762
 S           0.76551039423323    0.55496200506775   -1.24468300684053
O           1.34467656347722    0.11601937400249    0.02527391713218
O           0.53475385782897    1.96952373790079   -1.30110222253513
O          -0.62026478271260   -0.19819618186739   -1.36598662136908
O           1.51710744267579    0.01702890198971   -2.38117564397835
H           1.20377810424211   -1.35171275780941   -2.30980755798518
H          -1.03631950291373   -0.33986054828060   -0.47235306027140
O          -1.70566500445720   -0.83433422786753    0.90858228146511
H          -2.65808939742382   -0.85232930137035    0.80105635677935
O           1.37225696459649    1.52551592925496    2.27843035174356
H           1.96378381332497    1.02524509109930    2.84253838863371
H           1.42325366327685    1.10745646162050    1.39410601717221
O           0.59637667666171   -2.32611925324902    0.44628271395093
H          -0.30349632432347   -2.13905611151124    0.75275375846234
H           1.02154219257514   -1.43316070979203    0.43820315122083
O          -1.55803753174883    2.81436400895321    0.07041231353437
H          -0.80656555687091    2.49949554286975   -0.47936970308191
H          -1.40803541510622    3.75384849050919    0.18984647159752
O          -1.31592962542271    1.28976538275406    2.27238442187397
H          -1.51707380763819    1.92180573757881    1.54935757843651
H          -1.52499378393669   -0.04155739229713    1.52161411600803
H          -0.35860313548055    1.40701080514246    2.43733932754095
N           0.85497126415244   -2.40480822304633   -2.15280612188999
H           1.53552420946695   -3.07203423114102   -2.50221339401350
H          -0.03553151217001   -2.50716532074742   -2.63018177459939
H           0.71507024370550   -2.50170723976498   -1.08850204898826
