    26
        -50.46577285  Gyration_radius:  2.41269307675 Dipole_moment: 4.010
 S           0.63094780388043    0.88932556394604   -1.04881491597286
O          -0.15153573101512    0.78916888033961   -2.25416354673872
O           1.21371508991477   -0.39277685066372   -0.65151627022447
O          -0.35014737833238    1.29768854458707    0.12685493746821
O           1.62079086708979    1.95817222334661   -1.03796491884981
H           1.78527312297132    2.23275452928752    0.38703039744134
H          -1.17049474039236    0.74447914918457    0.00162100904947
O          -2.34697035787988   -0.30538875997735   -0.22211456066236
H          -2.66238487272658   -0.18818054248384   -1.12291745861256
O           1.73075370681378   -0.23790726099209    1.90591315886337
H           0.86900994703475   -0.57101137027565    2.23570803410915
H           1.69782201747222   -0.42581497024389    0.93858002056532
O          -0.76796843758672   -1.21421628331389    2.23061709944053
H          -1.47460522003969   -0.63301962714239    1.93584799967920
H          -0.69681813740913   -1.90195686573828    1.55498861494308
O          -1.49528497783611   -1.40397999351083   -2.85319449911457
H          -1.42702477775233   -1.55613297063286   -3.79608902592954
H          -0.97722227032346   -0.58574644924060   -2.67878317766737
O          -0.60430695301454   -2.28546756143455   -0.41888574918833
H          -1.81695081145356   -1.14310339576597   -0.25414083119402
H          -0.87997952915841   -2.46314292792439   -1.33033812179360
H           0.16661392559330   -1.68008682479829   -0.51397358774100
N           1.79104318576052    2.29439271553090    1.47891046338183
H           1.78190258325049    1.24328480686680    1.79573523050561
H           0.92843035776265    2.74600318692894    1.76798342054036
H           2.60539161768976    2.79266307378911    1.82310627774741
