    26
        -50.47312107  Gyration_radius:  2.44411097827 Dipole_moment: 1.575
 S           0.94378083982037    1.44515600451064    1.10073434804852
O           1.90996708173830    0.39807030730776    0.86257878815584
O          -0.23635930276153    0.94909938449757    1.80822286722740
O           0.57745241310692    2.19553895402632   -0.08478326292782
O           1.63399098246504    2.48799165312911    2.07179039717522
H           1.06989345270786    3.24272493520002    1.94540953616874
H           0.22951553247165    1.45540515070413   -1.45905774202820
O           0.05558431473322    0.97133539570485   -2.30832676101176
H          -0.03062114168953    1.64835358679187   -2.98099572554409
O           0.44671286439548   -1.56075192751092    2.08596485609440
H           1.39340034690927   -1.39637451744336    2.00946212606210
H           0.07198574408705   -0.65157889582839    2.10639699361293
O          -2.60889062289564    0.85989910336079    0.66230601606226
H          -3.17470214650493    0.55242772613451    1.37227539335699
H          -1.72013614518344    0.98486850592170    1.06100252331514
O           1.90163368928999   -0.88233534992414   -1.46585695378809
H           2.09226179205663   -0.39425006982882   -0.63702360455445
H           1.39448672094520   -0.25519638791102   -2.00810982894436
O          -1.93327189155751   -0.68580663992327   -1.41297900710993
H          -2.30764473245266   -0.13399362880792   -0.69219154501098
H          -1.32942694186286   -0.08723852338432   -1.89004691610085
H          -0.92373755845027   -1.70657623295540   -0.79580018638345
N          -0.08434045965611   -2.25945735683310   -0.42752532184025
H           0.77311553109014   -1.84740386618885   -0.91034751569846
H          -0.18225352349493   -3.24939102519206   -0.62067178556374
H           0.03760317069410   -2.08051627555571    0.60757231122503
