    26
        -50.46577283  Gyration_radius:  2.41259771707 Dipole_moment: 4.007
 S          -1.47977916540885    0.22994965672529    0.21494027574780
O          -2.19493243724118   -0.39288361828182   -0.86938373248315
O          -0.57805282670362    1.28736485788982   -0.24339734114449
O          -0.54977924751044   -0.87254317348608    0.87155393882607
O          -2.30551522030152    0.67155205971197    1.33102056862431
H          -1.37014488673381    0.65420908447259    2.45225927506948
H          -0.14583819261763   -1.37559352755162    0.11089521750131
O           0.54371918028296   -1.98598705374865   -1.18812615661822
H          -0.16239583250243   -2.28768301893938   -1.76705805459972
O          -1.11695614179249   -0.65664255513968   -3.26581658411787
H          -1.56179749638565   -0.54000395808466   -2.39592608095281
H          -1.79526798762693   -0.50542534602684   -3.92462931585770
O           2.62990474980892   -0.25869922056293    0.22829492342504
H           2.23235733767473   -1.13370434826695    0.20927285331466
H           2.46733168458036    0.12101178860883   -0.64575631249195
O           1.23900307142253    1.60164333093992    1.60927380611675
H           1.88931682811429    0.95125154250340    1.26804378286787
H           0.58674614780832    1.68521898851968    0.87468823100504
O           1.10014588392850    0.43822277615961   -2.08826546793158
H           0.50241225916538    0.88174489744826   -1.44330090714991
H           0.86837845118829   -1.14990187819721   -1.61149185217789
H           0.54426520407470    0.29781861766981   -2.86890606780392
N          -0.54147766382944    0.59525330941904    3.16366161586830
H           0.30418590478789    1.02276373553023    2.60936694209795
H          -0.36493486825599   -0.38699819409284    3.35238961746668
H          -0.74089473558822    1.10806125725276    4.01639682557328
