    26
        -50.46577289  Gyration_radius:  2.41269843754 Dipole_moment: 4.004
 S          -1.33912618171211   -0.57705021396197   -0.40666877345016
O          -0.23360506361841   -1.41248026922010    0.06375248661779
O          -1.42845111184528   -0.53908303410074   -1.84390866068590
O          -1.01014490614673    0.89090752697117    0.09213795256233
O          -2.58279948450081   -0.88875403329537    0.28509467885711
H          -2.38965499476067   -0.26895533834644    1.59327013730936
H          -0.31531986327463    1.24132857766151   -0.53162140572407
O           0.89501020761848    1.61457281652301   -1.49731178761530
H           0.57749614155105    1.51441068886725   -2.39946212563329
O           0.72314427286458   -0.68956231964190   -3.36798474095791
H          -0.10120565856270   -0.66875139343498   -2.83103683565759
H           0.51692868350729   -1.22246362795531   -4.13633722731097
O           0.34801328191172   -0.62067019348909    2.48603398577618
H           1.01364908538511    0.05911833269285    2.24681427432396
H           0.19514744512317   -1.10398402042533    1.64038499470268
O           2.07161425579070    1.06666450763545    1.26816315960594
H           1.66246453233967    1.74191113344331    0.71979167865794
H           2.43359572651560    0.41479830729897    0.65285381191130
O           2.07463036920151   -0.69735160685252   -0.98611860856713
H           1.47349161322912    0.82243187295949   -1.35086256848530
H           1.27271518833546   -1.08407000559335   -0.56507751540030
H           2.00459398426084   -0.96047158368808   -1.91566767640094
N          -2.07348233954018    0.23638515803564    2.51022252575379
H          -1.02555461303849   -0.07018554567544    2.62454973504644
H          -2.64261778364229   -0.03596857070200    3.30510557919194
H          -2.12053279693007    1.23727283430884    2.34388294562439
