    26
        -50.44890833  Gyration_radius:  2.47801255337 Dipole_moment: 4.959
 S           0.82746542506716   -1.66247944749727   -0.83256194819994
O           0.78369955016619   -0.48849511492537   -1.66018506727376
O          -0.46877236035255   -2.33578690894629   -0.70128631086676
O           1.41084126209592   -1.42124193156176    0.48214794498986
O           1.76256485493293   -2.70857805842424   -1.55517077210259
H           1.54319475136819   -3.51228184443570   -1.09621943219876
H           0.54632270250052   -0.60460398194133    1.47837382116469
O          -0.11709330691465   -0.16741729506190    2.09358000575603
H           0.13598290139041   -0.42283656299645    2.98259968272241
O          -1.01176444813716    1.53955472843684   -1.46574226277536
H          -0.59013319713581    1.98211624505702   -0.68941372174178
H          -0.39438967935440    0.83181788790431   -1.71829704555811
O          -3.12716174752844    0.55926035814983   -0.46938319209284
H          -2.32118993073491    0.95306966247468   -0.96502587439411
H          -3.48205220126153    1.27089966773267    0.06755945981145
O           0.20165254738185    2.33494927638816    0.77144671147641
H           1.11362680854863    2.14870956758169    0.44832793160146
H           0.01254766924871    1.61559365540848    1.38649746692481
O          -2.07923067554349   -1.26656672379004    0.84903312329413
H          -1.46804072178549   -1.78150831314231    0.16376574448253
H          -1.41441653015055   -0.79646273923243    1.44830924567661
H          -2.58907188773992   -0.50713775145584    0.27984455114068
N           2.51480946513774    1.29622626895517   -0.19773823181543
H           2.97609305460224    0.68718923702902    0.46724295692798
H           3.23090543069438    1.76997684822226   -0.73424443983753
H           2.00361027350242    0.68603326006689   -0.83346035711220
