    26
        -50.46044998  Gyration_radius:  2.45582167406 Dipole_moment: 6.769
 S           0.51616973809228    1.34126031452585   -0.61522021960234
O           0.82171674200065    2.22756460296926    0.47039171755512
O          -0.86349541967178    0.85456769282218   -0.59039732202457
O           1.42657709694394    0.05274504688359   -0.49992069086689
O           0.86924413931147    1.85913808002436   -1.93920937347285
H           0.90168089522470    0.68237942379656   -2.70808593269655
H           0.99157792057415   -0.65098875439005    0.05442140274271
O           0.31380122172447   -1.94828532506729    0.73049735151171
H           0.99897166017566   -2.47231489711272    1.14873710903769
O           1.16602406500145    1.05102942981987    2.80944289799090
H           1.08535956724237    1.48871939339224    1.93301430860650
H           1.05782324814703    1.75288644853760    3.45372658971226
O          -2.49837063247314    0.94909552857462    1.50315761423511
H          -3.34668314438850    0.70667370281783    1.12900992880729
H          -1.88517198703056    1.04358927552613    0.74521259627457
O          -0.91241350122607   -1.47356249753863   -1.72103161764814
H          -1.10265193711182   -0.59299102522800   -1.31278018115865
H          -0.56237350003714   -1.98941200724492   -0.97942013576138
O          -0.80535548772895   -0.77505385112096    2.70385456759089
H          -0.20605888972218   -1.53191659382334    1.50084103970946
H          -0.07024442265349   -0.15334433947453    2.89289667561389
H          -1.53007675425645   -0.20248663117460    2.38060910226300
N           0.91632627823110   -0.32705755290063   -3.19391022014160
H           0.69959183068415   -0.26055057343423   -4.18342103430320
H           0.17840778327076   -0.90756178007996   -2.66453171783219
H           1.83962348967102   -0.72412311109684   -3.04788444613688
