    26
        -50.46138225  Gyration_radius:  2.40841706319 Dipole_moment: 4.038
 S           1.76773983605044    0.49965629494944    0.29687069202468
O           1.29248790169646   -0.15570198222427   -0.92743089314496
O           2.45257865115910   -0.47387320478299    1.13900699402542
O           0.69327381545463    1.17153272590060    1.00333511389593
O           2.80481843539767    1.59121820305629   -0.11956718551855
H           2.25873216074310    2.18895287113218   -0.66459060770905
H          -0.69194176043201    0.70816939521721    1.52877837632257
O          -1.62246202911713    0.46389305273821    1.79037679556876
H          -1.73316056821188    0.78673958835142    2.68571553834778
O          -1.23336663774022   -0.72755436186997   -1.59459550190203
H          -1.66106304349521    0.13458471035006   -1.48050828888812
H          -0.28376402989492   -0.54211576357835   -1.45724509903015
O           0.73669390089889    2.38114929896393   -1.63753570800945
H          -0.12771449076499    2.46332365014441   -1.21222700217648
H           0.85188709732305    1.42860190291912   -1.76787389439367
O          -1.99671890948271    1.79791726382970   -0.65542640879888
H          -2.80394124687524    2.31422056476095   -0.67056180922259
H          -1.92118644318461    1.40967013851954    0.23404205497233
O          -1.37907737060401   -2.01363161579964    0.69021200264164
H          -1.49577439655013   -1.65085116670474   -0.22720672917659
H           0.07859038161547   -2.36773201262974    0.60033474208941
H          -1.53494604549328   -1.23774587875070    1.25967118625335
N           1.13409426996123   -2.54284453359125    0.36592557458565
H           1.24149594346829   -2.40849579628842   -0.63989584342747
H           1.44468540710627   -3.46457106339104    0.65668772660559
H           1.72803916096914   -1.75451227122002    0.80370815404842
