    26
        -50.47163204  Gyration_radius:  2.41155558719 Dipole_moment: 2.519
 S          -1.07925582725430   -0.77834683557281   -1.43137390836414
O           0.00392600968140   -1.74223302741061   -1.53481208755473
O          -0.92525917892349    0.36365476492226   -2.30482267804537
O          -1.34132268554120   -0.40705862935429   -0.04979580760805
O          -2.39691163015281   -1.52993333120837   -1.90613429167735
H          -2.28973138096292   -1.57674987145746   -2.85076624499207
H          -1.04169031698363    1.25837495317478   -0.20310454398527
O          -0.78927153346911    2.20329138893665   -0.17259870556743
H          -0.89828108536490    2.50419620886753   -1.07787010906817
O           0.43350324040044   -2.43936923520834    0.93560194605588
H          -0.46494069533916   -2.58392501258650    1.24098289739572
H           0.33987527526222   -2.24085274136413   -0.02787315042345
O           1.72947723000551    0.26426520945390   -2.09894131945320
H           0.82861111107717    0.51716563496956   -2.36897173511619
H           1.64565391000692   -0.68539278026159   -1.94862889719214
O          -1.32525773811397    0.79278464701962    2.37756564831679
H          -1.58344592492891    0.24656004595854    1.61566596343941
H          -1.34184613250353    1.69531340125252    2.04200560038029
O           1.82479918487689    1.59134064315132    0.20446701945360
H           1.97352234322773    1.13645598394135   -0.65686772753434
H           0.94913057693616    2.01842352957492    0.10605885030288
H           1.54248258212874    0.54946444032821    1.29091198587161
N           1.16876220293607   -0.12833442742918    2.04323207384482
H           0.97172765912304   -1.06916417953067    1.60260220141428
H           0.24385605141191    0.25768065579360    2.36015412177126
H           1.82188673245017   -0.21761143596629    2.81331290833610
