    26
        -50.45060044  Gyration_radius:  2.45589096743 Dipole_moment: 6.058
 S           1.93510842943519    0.22717757300763    0.11261763002856
O           2.78202953565723    1.16432167331311    0.78067436083144
O           0.71073252733179    0.76990719962291   -0.41846064658745
O           1.57598966689962   -0.92758786375973    1.09049147323575
O           2.68660961855632   -0.48434028492447   -1.00556715288547
H           1.92190828522491   -0.87859378557427   -1.64394485991091
H           0.59805526183763   -0.94970709162159    1.31099940676810
O          -0.91894760689753   -1.04852594892184    1.72173803729723
H          -0.97057818054872   -1.32872889002167    2.63711792025002
O           0.75850963135637    2.60816448485733    1.85852804200452
H           0.76780003242152    3.41761703399548    1.34362446851065
H           1.53653067846670    2.10161692151922    1.56459458633900
O          -1.58748832652886   -1.85296662387411   -0.79800201306277
H          -2.25323425465186   -2.53968694690779   -0.73402965035522
H          -1.34344282646351   -1.61667638591129    0.11605384410433
O          -1.86750318840420    1.00848879022001   -1.09172654210727
H          -0.90268717600132    1.07159028550083   -1.00239919478944
H          -2.03927224240713    0.06015512508654   -1.15037122590205
O          -1.65998929527805    1.36713974564991    1.59995027191175
H          -0.82433807992096    1.86260590799114    1.72377280033514
H          -1.87875614608068    1.43031316363218    0.64650040391790
H          -1.24392972765643   -0.06937274881674    1.70299914562135
N           0.77029592658556   -1.29891528430824   -2.45094274375876
H           0.96646541293648   -2.04596126859732   -3.10435764170289
H           0.48327766204579   -0.47481463234688   -2.96342958243726
H          -0.00314561790474   -1.57322012880714   -1.84643111767750
