    26
        -50.47163201  Gyration_radius:  2.41184816297 Dipole_moment: 2.533
 S          -1.92485281212042   -0.33405765635098   -0.08171076306118
O          -1.54312787308541   -1.59436330004615   -0.69694150244916
O          -2.16855751311120    0.72636093975700   -1.03424914667544
O          -1.00370101386648    0.05146867017248    0.97564927906293
O          -3.30689916064736   -0.59499554920423    0.65881797639325
H          -3.93000846799152   -0.63900325687046   -0.05938680433309
H          -0.50549167935113    1.53435282969243    0.31326474387287
O          -0.08596965916031    2.34548623589534   -0.03839876968697
H          -0.73450655475253    2.69624591550646   -0.65350652438892
O           0.34960039166835   -2.48322979568773    0.85279050436505
H          -0.35881007558210   -2.22800889630913    0.21283371867742
H          -0.04622881006620   -2.35144867179054    1.71724121004449
O          -0.32573715994009   -0.23790396715834   -2.69905703200653
H          -0.50793946712221   -1.11527075347427   -2.34083226570602
H          -1.04091358935683    0.30138004973343   -2.31645021490380
O           1.05171017584873    1.09393216203847    2.39603863308591
H           0.19979756766213    0.68816075105922    2.16120295666128
H           1.02385668818511    1.96463217527124    1.98544131721267
O           1.72589909586535    0.90806182529142   -1.45241288407502
H           1.19419446759877    1.59900404705589   -1.00647156758622
H           2.06533444822555   -0.02357865692111   -0.28581437306934
H           1.08835161865485    0.45919359940667   -2.05480292148280
N           2.19568190508075   -0.57123738595000    0.63532740714476
H           1.51687299932973   -1.38143791117685    0.66151135796671
H           1.92050374661122    0.08092186113518    1.41241939319486
H           3.15094074175771   -0.89466525130866    0.73749626188152
