    26
        -50.46247240  Gyration_radius:  2.4203522128 Dipole_moment: 7.255
 S          -0.84370954924916    0.07711581028095   -1.12001971957553
O           0.15580857533724    1.13312685785913   -0.99378096599935
O          -2.09858789331767    0.41070589414299   -0.49436857025264
O          -0.24073621735239   -1.18842870734381   -0.39335851654104
O          -0.96385516420476   -0.38439085717852   -2.50250726027815
H           0.30618571122922   -1.00011481086599   -2.68232172626807
H           0.29463456683601   -0.92965615639946    0.40825456585554
O           1.32546757763964   -0.60345870427802    1.58879869949324
H           1.33485920931369   -1.33775456269824    2.20564608380901
O           2.49088726556469    0.02275815646973   -0.88998263189321
H           1.73347732932817    0.65380971336546   -0.94632265583129
H           2.45347247478488   -0.28470934423086    0.02730994429925
O          -2.30314189107384   -0.51686960885377    1.98043066031450
H          -2.24891643178101   -0.23974221542150    1.04041445383958
H          -3.22749669625307   -0.44522014446381    2.22307924450478
O          -1.04135569538740    2.71048072396688    0.79493050579147
H          -0.48075447860156    2.31146256197524    0.10463188779737
H          -1.92185575767290    2.37999292419504    0.59174279394943
O          -0.23285904934467    1.05968931307466    2.75780735152957
H          -0.43060390346291    1.81374126202319    2.16030104584628
H          -1.02122075539650    0.48696211564560    2.69537544328206
H           0.80869201825089    0.13007170397221    2.06387205320589
N           1.31422028694865   -1.47321415306096   -2.68113223371505
H           1.74064145725920   -1.41731742989250   -3.60105168083155
H           1.20417210645493   -2.43979538504408   -2.38906695484955
H           1.89257493415245   -0.92924494724634   -1.94868181748660
