    26
        -50.45275444  Gyration_radius:  2.51547899104 Dipole_moment: 2.625
 S           0.70258579099795    1.38511913228829   -0.56399579010160
O           1.37515610520418    0.36031402843931    0.20644643013949
O           0.47365126339278    2.59475390800914    0.16241019222601
O          -0.63050413582535    0.81169580440913   -1.09551243884446
O           1.46744633174153    1.66661241916508   -1.84321156644271
H           1.41026218761576    0.81563364993488   -2.43462925331410
H          -1.26576714060198    0.60366836936091   -0.33861442105361
O          -2.21633098833025    0.38221469455041    0.86752850664080
H          -3.04791265424966    0.83299707816037    0.70447076382730
O           1.05059580240973   -1.96621331723205   -1.10367205804901
H           0.12086837858409   -2.20300929615324   -0.87136317801390
H           1.28199040533904   -1.24897985200533   -0.48943280060431
O           1.36127913851525   -0.46566400299991   -3.16429186416789
H           1.17963254525804   -1.13878885844052   -2.43134282175412
H           2.23369327987137   -0.67307922561460   -3.50753975763824
O           1.27024253214268    0.33826047126704    2.90474336242481
H           2.08770954953510    0.73207204893610    3.21421568456767
H           1.36339249571379    0.24009908538768    1.93879952857117
O          -0.86227182844801    1.91398669679342    2.41881946817610
H          -0.17485911729940    1.34780148425949    2.82540931100801
H          -0.39991890061240    2.39829014376923    1.71199347742051
H          -1.74280419065750    0.93048136155839    1.57431463779960
N          -1.50600695468603   -2.39949271694932   -0.26848919498976
H          -2.17774181075632   -2.46991854535195   -1.02217560901205
H          -1.73944103599363   -1.57768109118317    0.27876136988874
H          -1.61494703885394   -3.21117346038576    0.32635802128803
