    26
        -50.45341044  Gyration_radius:  2.50234016137 Dipole_moment: 2.442
 S           1.07702931880214    0.69065972698590    0.98911145473130
O           1.03571678300505   -0.60852526589077    0.36388822124434
O           0.66742276251485    0.70486503162979    2.35690442842364
O           0.20041741492037    1.66750205770356    0.15534665717584
O           2.45531303360064    1.31632698951894    0.83674896668482
H           2.57591004370301    1.47399511657659   -0.16439564608135
H          -0.75628309100847    1.34639288122749    0.13511290544699
O          -2.19084521464035    0.75124168645820    0.21790937777277
H          -2.85344837873378    1.43204569188134    0.34947876019941
O           2.56439377450061    1.81698843987273   -1.64300775415996
H           1.87926706748409    1.32824032685389   -2.17378400756378
H           2.30883647886684    2.74134473430431   -1.68963656824575
O           0.74248402763806    0.62875951770831   -3.13178761818976
H           0.10744564449932    0.08547200081822   -2.60433514042782
H           1.13490613050375    0.02829757618349   -3.76787034702057
O          -0.78007223661692   -0.90145703849174   -1.58428459508431
H          -0.09209441666859   -0.94040913823460   -0.89409717272356
H          -1.51673880303042   -0.42673481902908   -1.18012134582660
O          -1.78965428077977   -0.46335407518647    2.42163970103396
H          -1.53137850506378   -1.38116630675460    2.15547890195128
H          -0.95174706203150   -0.03181074310742    2.66119200517763
H          -2.12989166138870    0.23734565526793    1.09715201551045
N          -0.71675709228564   -2.71866513337226    1.41324013603334
H           0.08185406415509   -2.17633172230380    1.09157756929109
H          -1.15332772271628   -3.12865073308846    0.59681175890716
H          -0.36875809922547   -3.47237246750775    1.99172735573887
