    26
        -50.46247237  Gyration_radius:  2.42022174999 Dipole_moment: 7.257
 S           1.22019967070691    0.48948487706220   -0.49233309088145
O           1.28560806606005   -0.75780279110348    0.26280545462894
O           1.39885616496747    1.65790520765890    0.33248808137614
O          -0.22274736611843    0.54159356762537   -1.13140797035128
O           2.08315709968322    0.44735625955011   -1.67226192547727
H           1.41142090071890   -0.53517066464512   -2.45175028526585
H          -0.90688028149874    0.14403373492690   -0.52296294931547
O          -2.03592060337772   -0.64283183259665    0.29444385409361
H          -2.89109192540110   -0.25853308856173    0.09236683533285
O           1.19988560351474    0.19014414260879    2.75585536194759
H           1.52316029510255    1.06055522877693    2.50363117693855
H           1.30369986504520   -0.33814910330717    1.94339761039637
O          -0.89313287879202    2.72169260359026    1.13372449667286
H          -0.05252266988556    2.36532780160992    0.77345290984099
H          -0.68445352678281    3.59150491977864    1.47742725965749
O          -0.26692582604295   -2.47752482913345   -0.88990472135428
H           0.39457191773831   -2.01823026125134   -0.31840785266101
H          -1.11255372004351   -2.13220047209516   -0.56905993980368
O          -1.46588036018749    0.46528161119570    2.53237922863063
H          -1.41174022879793    1.36719921965659    2.16215093459872
H          -1.81910554799257   -0.31894366343943    1.23193125314056
H          -0.54272334110867    0.25069471532032    2.79006726820543
N           0.77536522715869   -1.28772590688865   -2.97055555908034
H           1.34026211631981   -1.90084290997248   -3.55036623406733
H           0.09252998321820   -0.78495402061796   -3.52973117751457
H           0.27696137579157   -1.83986433574129   -2.18738004967602
