    26
        -50.45275417  Gyration_radius:  2.51529901403 Dipole_moment: 2.621
 S           1.27364601178843   -0.80656956159362   -0.68038131399098
O           2.09524297802931   -1.60366583369253    0.17567119886998
O           1.26154123518412    0.59904199209327   -0.33348803113631
O          -0.18016775032520   -1.33073986963043   -0.67844499309717
O           1.68071523486600   -0.98564728161167   -2.13049038837827
H           0.92848267886430   -0.57852645662954   -2.71838879802317
H          -0.57808585016541   -1.30039143463208    0.24918699228668
O          -1.09541380064828   -1.29749285175589    1.71189492050855
H          -1.42245283705410   -2.17171071828164    1.93571484714085
O           1.84435613924517    1.43867114177587    2.16581597020195
H           1.60440123902349    1.25040850678118    1.23930946590618
H           2.76046565303400    1.72078001408138    2.15291474277218
O          -0.83649382168345    1.71459187135185   -1.59318336628358
H          -0.04427924231047    1.51543642599355   -1.06593598913185
H          -1.59176366737507    1.42484872818278   -1.02741490764813
O          -0.13790104640200    0.10872662584200   -3.47133353356335
H          -0.52913769488092    0.74190773452946   -2.78627791823191
H           0.25426981657771    0.66053254796250   -4.15226672650726
O           1.26286479274088   -1.13624722772891    2.71121046188928
H           1.73435013949133   -1.45780286424091    1.92243057317055
H           1.47356100437735   -0.18124496190403    2.75746903599271
H          -0.22152303546554   -1.19645813037533    2.21226800941808
N          -2.71952706345675    0.82183846448208    0.16115445554597
H          -3.43601886287643    0.24428669122068   -0.25974336490874
H          -3.17650091851147    1.55893761136255    0.68298014122410
H          -2.20463135206194    0.24648882640409    0.81932853597423
