    26
        -50.45275435  Gyration_radius:  2.51556836643 Dipole_moment: 2.623
 S           0.97566845227638   -0.31216942640914   -1.29685227400917
O           0.71790679287622    0.39381283670023   -2.51279969480882
O          -0.12631083854367   -1.14332461535611   -0.85987689194797
O           1.33289758151266    0.67486719129908   -0.16256210756005
O           2.24121095654727   -1.13951636768758   -1.41732957884279
H           2.50656515971446   -1.44479214798479   -0.46154596320293
H           0.57732851935778    1.32244861253245    0.00896950867467
O          -0.59163062234173    2.33105220683196    0.16338364818123
H          -0.25000710457110    3.22603492052271    0.10352715439324
O           2.75379415234151   -1.91409208833920    0.91519557437707
H           2.96827957085914   -2.84991421919675    0.90150759614730
H           1.84285141238242   -1.84021300208929    1.34870904363961
O           0.31846312248258   -1.77130468557355    1.71740275627909
H           0.05755982367831   -0.93826972167467    2.17822680279632
H          -0.02156271371984   -1.66797477458342    0.81244735364449
O          -2.66191759555069   -0.63232656930539   -1.63609431538150
H          -1.79292671956536   -0.90035949097839   -1.28349293085609
H          -2.85083475345233   -1.22708460560513   -2.36388103417036
O          -1.57772546388462    1.78353021372694   -2.14185415694473
H          -2.18187321905279    1.02556632480613   -2.00446710768505
H          -1.08626885086252    2.16909087897169   -0.70465163066897
H          -0.76738404538566    1.39192425763472   -2.51326453413839
N          -0.50975599537802    0.61797462932312    2.73092491959382
H          -0.73086731031657    1.17934002453661    1.91527374146627
H           0.19948011210422    1.10844183517687    3.26066019387056
H          -1.34294042350009    0.55725775271308    3.30244393718498
