    26
        -50.45275428  Gyration_radius:  2.51557474361 Dipole_moment: 2.624
 S           0.37839131631645    1.36887115655027   -0.84554492931142
O           0.39649265646993    1.24189833735751    0.59660329228983
O          -0.69700024396195    2.17061919589574   -1.33954497715388
O           0.33083101573604   -0.04498986325654   -1.46760013078500
O           1.71062439053248    1.89704681420842   -1.34239638111507
H           2.42583874797260    1.16954771670374   -1.15220446743640
H          -0.53380460152410   -0.51443078512053   -1.23999929677743
O          -1.91521899129837   -1.14203938600271   -0.91605230976127
H          -2.33196541600950   -1.43233749526711   -1.73052298718578
O           2.01937789016502   -0.81623914548056    1.20043681013141
H           1.44586805461578   -1.59384262294941    0.99847701122007
H           1.41212826236747   -0.05694395420560    1.20001975936590
O          -1.84252420786633    1.58305156761419    2.06762963480421
H          -0.98054220180023    1.42533386040819    1.63935185338260
H          -1.81247626849086    2.47874205054970    2.40795447993469
O           3.38995677039957    0.12500191584689   -0.75670643539877
H           2.91039089660063   -0.35669617811799   -0.00754671570699
H           4.16236107778955    0.53462139379792   -0.35980641729510
O          -2.98054533466362    1.11832338199288   -0.33122310749753
H          -2.42527007280734   -0.31692112597996   -0.62748869647686
H          -2.79874683890058    1.26655416367051    0.61931451649776
H          -2.32680853336916    1.66778337494174   -0.79879497217711
N           0.21492575126457   -2.77115316078249    0.61432007413387
H          -0.59758833349756   -2.27346638522467    0.26578891285501
H          -0.07483130833774   -3.31877485158447    1.41464626954163
H           0.52013553230638   -3.40955996558521   -0.10911078009528
