    26
        -50.45275442  Gyration_radius:  2.51552061481 Dipole_moment: 2.625
 S           0.60385742146305   -0.07087859414737    1.53647721294425
O          -0.18730363660875   -0.71416436560310    2.53824305897269
O          -0.03530255922090    1.08339364352344    0.94037126390454
O           0.97354742274504   -1.06765589540639    0.41480502116342
O           1.96269535085416    0.31062797624519    2.09205814379738
H           2.57007093435786    0.56005044183641    1.28827945749399
H           0.14661614699030   -1.43579616231746   -0.03275258476354
O          -1.16701589767431   -2.01638899778254   -0.62000993387999
H          -1.13240116843648   -2.97517495865216   -0.59111868462543
O           3.32987966270842    0.99015185319057    0.09910684378808
H           2.60275954427015    1.22660970967760   -0.56322708685338
H           3.79201146774962    1.80922870740373    0.29266213103696
O           1.29872504270636    1.65716479026254   -1.32351457500232
H           0.69625776246159    1.62441005647081   -0.56113779946888
H           0.95473539159090    0.96972899810162   -1.94279692634747
O          -2.72083797681484    1.36622780132362    0.95171714178400
H          -2.93087435398692    1.95455894214768    1.67888739163328
H          -1.74834978018275    1.36190464168473    0.87686740505157
O          -2.57648223557226   -1.28843145917457    1.39743147886527
H          -1.82309781555332   -1.74506676114323    0.10125334152660
H          -1.83173923472740   -1.18988030717850    2.01674076284493
H          -2.86823203561794   -0.37320173024242    1.20848461788305
N           0.15154612677669   -0.30437152435291   -2.82604938452600
H          -0.42357358061961    0.03891348281469   -3.58505027508055
H          -0.45016902524211   -0.80344649426162   -2.17930160612005
H           0.81267700563333   -0.96851376444000   -3.20842640604945
