    26
        -50.46073119  Gyration_radius:  2.41360588465 Dipole_moment: 3.475
 S          -1.55222086378720    0.64290854056243    1.16027593248241
O          -1.31937912611014   -0.38932916348054    2.14181766731841
O          -1.34563619213651    0.16698849773315   -0.20941005628839
O          -0.83377250183801    1.87606276048643    1.41530992974053
O          -3.09942796910012    0.99925501946430    1.21396268612358
H          -3.23356394486447    1.29727793661504    2.10819723520796
H           0.67131202077822    1.27016662363279    2.08866064093054
O           1.20859721390817    0.52271586692569    2.40529426247430
H           0.53023083631939   -0.09364390231375    2.71482301269254
O          -0.18578175221582   -2.18125856917645    0.32468542198056
H          -0.43320370646195   -2.40557870686597    1.22573353218428
H          -0.68897461768035   -1.36241080123033    0.14349949020838
O           0.12881223263072    2.15554951599705   -1.10345320647497
H           0.21276955489884    2.68063742606324   -0.30008227228044
H          -0.54526945757805    1.48444004527250   -0.85983029084323
O           1.81500655848019    0.35718603349927   -1.75822588560071
H           1.27631254946823    1.18524537225196   -1.51316252477992
H           1.07609554950030   -0.29082931805984   -2.18279379245764
O           2.16047475448607   -0.87642262904026    0.37450578936286
H           2.06139675939593   -0.13016039402754   -0.84304006869950
H           1.97637722278251   -0.30325215001581    1.15919898682175
H           1.40532360261544   -1.50621724100467    0.34326079126780
N          -0.09431010960757   -1.13483643156292   -2.50502462717614
H           0.03426658139061   -2.06096875323078   -2.11329643835540
H          -0.39609360881451   -1.21985024263412   -3.46652250674155
H          -0.82934159662742   -0.68367532599378   -1.96438369909370
