    26
        -50.47679056  Gyration_radius:  2.36796003898 Dipole_moment: 3.212
 S          -0.22470904756758   -1.27572792236121   -0.84965930076776
O          -0.73210276212682   -1.38068861903705    0.51889706416029
O           1.03560742471139   -1.97081276063105   -1.00815707183652
O          -0.10199778758974    0.14234112253649   -1.22500429851475
O          -1.25936254303711   -1.92401800875243   -1.79742808333516
H          -1.98419169997437   -1.24670999431062   -1.84462634477621
H          -0.24134669221474    1.20573732055941    0.09638024677126
O          -0.27121612253069    1.77268006752748    0.89430072688105
H          -1.18540871288321    1.71155359527834    1.19408745978286
O           2.10150489637544    1.66766280344567   -1.03961436403583
H           1.72970086225657    2.33473958367426   -0.45397633075699
H           1.33146108993611    1.15725703904876   -1.36030242041584
O          -2.76766008945835    0.18198794988754   -1.67559521322104
H          -2.98551939750817    0.29652780989437   -0.73004958227317
H          -1.92360228984156    0.63827384492878   -1.79514761453316
O          -2.69619950892739    0.25456425769143    1.04267766651111
H          -1.96581129083228   -0.40012312930266    0.91156665304428
H          -3.33519665646925   -0.16973686255125    1.61681605916436
O           0.97857992853651   -0.21422663628064    2.20427441694708
H           0.61695972774815    0.66807397802794    1.97231531101069
H           0.34305575110170   -0.82865784583965    1.78493729633834
H           2.18347998372822   -0.40275753864381    1.21788083050113
N           2.74916569806523   -0.52758232381975    0.31553894935048
H           2.18053037534051   -1.21124044732422   -0.26703351311819
H           3.69027120915975   -0.86564663677916    0.48223188277077
H           2.73400767465799    0.38652933181904   -0.20531044353736
