    26
        -50.44411042  Gyration_radius:  2.5865367231 Dipole_moment: 4.457
 S           1.49741495743038    1.44814989845865   -0.86071152954734
O           0.12569539128683    1.42136978963269   -0.41372227512812
O           1.69892734233196    1.45071374939545   -2.26208326439735
O           2.24812014007188    0.25486841933692   -0.18954626480568
O           2.21508802491791    2.64140357844161   -0.20412484778300
H           2.03562922843689    2.51962421777119    0.76290306730542
H           1.67491041194837   -0.55340098303197   -0.03926802100654
O           0.78114975563914   -1.73516719390409    0.54622909193910
H           1.26530121221347   -2.31650309122916    1.13545686955205
O          -1.65941314829549   -2.08109474216625   -0.92319981143143
H          -0.77325172280623   -2.21352932753544   -0.56616400679396
H          -1.54061976343732   -1.40870963498029   -1.63364486844321
O           1.70011311532171    1.82431426198566    2.23110597539098
H           0.84579181498819    1.36563799310768    2.29044262588481
H           2.37952730942558    1.15560355821406    2.34696886626867
O          -2.84263683331210   -0.96976024073148    1.18768552796012
H          -2.49774401079613   -1.37077019487278    0.35041887604384
H          -3.42313544786886   -1.62358346111911    1.57772232832169
O          -0.50983792692974    0.13694080739531    1.78935485136152
H          -0.44303918256427    0.69291221571698    0.98427767061261
H          -1.43940633485312   -0.18370734652085    1.77262425315459
H           0.23357218045088   -1.11573895484253    1.11803593439646
N          -0.98847233338874   -0.08282570386746   -2.64514112381653
H          -0.76763326819250    0.59033787711136   -1.91660647702467
H          -1.67719078378642    0.34519373563210   -3.25228118778993
H          -0.13886012572268   -0.19227921850732   -3.18673225064809
