    26
        -50.46870538  Gyration_radius:  2.48920911194 Dipole_moment: 3.872
 S           0.53203491762698   -0.33812758323731    1.03836614180069
O          -0.02730919018209   -1.64498397516141    0.71784736506301
O          -0.51755022307545    0.68416080448891    1.07760795912159
O           1.58839298775227    0.03522021718447    0.10020895420943
O           1.13720323467010   -0.46786095474964    2.45294268035447
H           1.47188005574062    0.42711725467513    2.73270610417644
H           0.95776402332591    0.06580078657167   -1.35513507757427
O           0.51681402432832    0.10015780543983   -2.24723747264807
H           1.13990178597679    0.53292660534719   -2.83361026206092
O           1.85079614641835    1.94559135669620    3.11533141650654
H           1.73396288882389    2.38468799199040    2.23512783042424
H           1.18439876824582    2.31875693173357    3.69606524656681
O          -1.91096674157268    0.83404343420027   -1.16367455194089
H          -1.15777864570381    0.77308780429800   -1.77516012054577
H          -1.49480524510882    0.94359376335410   -0.27964113961572
O           1.22321243357837    2.63346389351545    0.65189567995398
H           1.75934881641232    1.94549743951605    0.23066776755036
H           0.37108791861092    2.17893026217844    0.79014422687547
O          -0.12928777381242   -2.55474176655651   -2.10172081819613
H           0.14594685104067   -1.66102273735445   -2.37823534706321
H           0.30330646233328   -2.68779269010570   -1.24929457398688
H          -1.67419561631240   -2.19846289457276   -1.46358879452337
N          -2.18858510191399   -1.70791605865512   -0.69218033832861
H          -3.05593624775598   -2.15927412244693   -0.42789161466847
H          -2.29914359277897   -0.67641829020904   -0.95657100029131
H          -1.46049294667165   -1.70643527814053    0.08502973884551
