    26
        -50.44411082  Gyration_radius:  2.58684388995 Dipole_moment: 4.473
 S           0.58406497069042    0.67430232763001   -2.06997205298932
O          -0.25848646767824    1.09027382347001   -0.97489485953516
O          -0.07439300556416    0.08592884208694   -3.17669474596109
O           1.68194632164847   -0.27878003855932   -1.50053306740828
O           1.44766128901907    1.86704430450367   -2.51878093772075
H           1.87878727253753    2.17203075245543   -1.68009528328520
H           1.37328971073553   -0.83813422937312   -0.72834636530074
O           1.09066560740464   -1.50039444634883    0.69310310186308
H           1.87384987110552   -1.88662295475755    1.08931652557265
O          -1.51167393629058    0.14356337967877    2.85179482070899
H          -1.69458855143910   -0.61081168761130    2.23672291368355
H          -1.68689311628660   -0.18310642986870    3.73450024612982
O           2.52512846597159    2.19166229029665   -0.15298492737910
H           1.91000606896709    1.96269091635596    0.56338711211583
H           3.20225217043227    1.51072617499402   -0.16165346268530
O          -1.70978941007342   -1.91003547149228    1.16854396830508
H          -0.77585595869683   -2.06197318529195    0.98156247913021
H          -2.08646386785419   -1.60667983097965    0.30998212195868
O           0.62780752726330    0.92081887722973    1.49322954995885
H          -0.10461469929140    0.80636089378795    2.13978780533017
H           0.93482341052052   -0.61294991111336    1.13889999488879
H           0.16341497525090    1.09253089777450    0.64665092172106
N          -2.34321337169293   -0.91981973630821   -1.28615089831262
H          -3.28873510132649   -0.63865475292556   -1.51668751604265
H          -1.96692494638282   -1.39780275837611   -2.09678257876182
H          -1.79206524889987   -0.07216803729603   -1.18390486603506
