    26
        -50.45310049  Gyration_radius:  2.47119790475 Dipole_moment: 5.236
 S          -0.10734694364443   -0.85404124555076   -1.11625444026655
O           1.00756822966424   -0.79907603491785   -2.01258727199515
O          -0.88009589026589    0.35975430385814   -1.03699068129450
O           0.38420719131869   -1.23711687276885    0.29386909214942
O          -1.00256116295345   -2.02697845914114   -1.50386941582321
H          -1.73201418927933   -2.10278711924014   -0.79055919426124
H           0.35163607511593   -0.45283674257395    0.95998642308122
O           0.46802019844639    0.67731960795109    1.93202619442685
H           0.94345887549843    0.37170091302246    2.70815668148485
O          -2.81880790648015   -2.07241050667059    0.26561129587222
H          -2.74169701273164   -1.18153110982266    0.73679853409224
H          -3.67007907282548   -2.07511591052938   -0.17772686408641
O           3.16544515048896   -0.55260578163143   -0.41446977191260
H           3.10933387709797   -1.34139658398534    0.12744854924134
H           2.49362933425045   -0.66351969431158   -1.11126887244453
O           1.02416936781930    2.09998721378036   -1.85404999445841
H           1.48794641133616    1.48826905474857   -2.43271818342298
H           0.20529595348959    1.63992239293560   -1.60795529682383
O           2.25896879575969    1.83848231227714    0.52720079268653
H           1.13367811624061    1.24865645899820    1.41493991425594
H           2.78552346814545    1.06338893852958    0.25165278881042
H           1.84690327779070    2.16095687372492   -0.30177440469688
N          -2.52546670572188    0.34273559884316    1.25982188819321
H          -2.03635563455219    0.65645788730176    0.42239176845970
H          -1.86316897018674    0.42788692117468    2.02165733732855
H          -3.28819088381562    0.98389757400645    1.43866311138916
