    26
        -50.45310037  Gyration_radius:  2.47131803258 Dipole_moment: 5.233
 S           1.31879918490418   -0.46789377160725    0.16431608836161
O           1.02747652537015    0.63084155167650   -0.72144875415457
O           1.59141372355905   -1.71155300812961   -0.49020654507329
O           0.14758093191373   -0.65080849191864    1.15010003837634
O           2.49044071503318   -0.11635788528180    1.07599185971182
H           2.22760811271722    0.72076134414696    1.60192567414400
H          -0.72156273870448   -0.19980086409144    0.83262113924465
O          -2.04682994123772    0.30540543981860    0.35876820170364
H          -2.73163235176774   -0.01010694423298    0.95310977654462
O           0.20183957195146   -0.79489617666324   -2.86815579223363
H           0.51788896127271   -0.12180536548285   -2.24382964739526
H           0.75781046907371   -1.56254470367139   -2.70760805529958
O          -0.65274854268925   -3.17001178012400   -0.16159064981794
H          -0.72975708624952   -3.21317155819394    0.79304913465937
H           0.22295795004434   -2.78098931834685   -0.33742956630188
O           1.77933809829897    2.01035611944346    2.26086519660751
H           2.47144327579420    2.66489563557779    2.14337911043952
H           0.97866498316898    2.34045822698909    1.73994190031822
O          -2.10132511161430   -1.35316461951259   -1.58418139601448
H          -2.13151282646654   -0.26690056319057   -0.47928939252846
H          -1.40679269196436   -1.10418535995051   -2.22959469725300
H          -1.74574328800082   -2.14615902004662   -1.13825621478603
N          -0.19437991263767    2.75158411274651    0.69128060257928
H          -0.32343448759938    3.69221172431982    0.33998082605252
H          -1.10706686443508    2.38010678368440    0.92639020321301
H           0.15952335950571    2.17372847253205   -0.07012905081856
