    26
        -50.45310045  Gyration_radius:  2.47146371902 Dipole_moment: 5.232
 S           0.57076109765030   -1.04325615722449    0.75481875097846
O          -0.61298093015790   -1.26661893806203   -0.03616903124037
O           0.34160312139859   -0.94537731015905    2.16457351042361
O           1.28091518071693    0.23200958230365    0.25862463823148
O           1.59841863183458   -2.13949408989280    0.49106789897567
H           1.81561803163483   -2.12018839661832   -0.50848201800224
H           0.66937546615838    0.84406045252243   -0.29934822008195
O          -0.20433131119881    1.84139307804263   -0.98995623057144
H           0.28391365611451    2.66101856890947   -1.09771190476457
O           0.53141888270506    1.68763087322614    2.71463259726553
H           1.42246717293459    1.89326698398083    2.42672229252468
H           0.46002353222882    0.71678661400680    2.67685411638627
O           1.99844830370095   -2.06894212260226   -2.01234255821274
H           1.87267248041995   -2.95405788314340   -2.36159506917462
H           1.24357406712169   -1.50486384428755   -2.37775192834670
O          -2.44024857532468   -0.26906448211113    1.69320258443828
H          -1.95998816251574   -0.71937665335142    0.97959202322609
H          -1.96424793876713   -0.49938805631956    2.49609979381657
O          -1.60518511046570    2.22659671870484    1.11175581462117
H          -0.85977733136616    2.01504768083945   -0.22994608610438
H          -2.12035066059853    1.41353533180183    1.29765171973996
H          -0.89910834451352    2.22702672687850    1.78666029047643
N          -0.11161376539996   -0.68970366670520   -2.75640544367615
H          -0.59657593803490   -0.91379195840021   -1.88834475929737
H          -0.71515960583804   -0.94135166620964   -3.52920060063057
H           0.00035802958522    0.31710260387718   -2.76500215105074
