    26
        -50.45341034  Gyration_radius:  2.50235223937 Dipole_moment: 2.446
 S           0.66805794761731    1.02115114756111    1.06097088677524
O           1.09549214292524   -0.26070489006182    0.55631796258248
O           0.06097286227311    0.97851400492714    2.35264648952774
O          -0.30651383536537    1.65732927372416    0.02983483569692
O           1.81882164536037    2.01610980884998    1.04311697514559
H           2.04625428914277    2.15475507165826    0.05796975134999
H          -1.11743859296003    1.06892970497203   -0.09240294293797
O          -2.31931023205914    0.08347944910213   -0.15337890951829
H          -3.15937593786244    0.54563714324228   -0.17619109769628
O           1.01310413641776    0.67539844419121   -3.04429745416000
H           1.65286435001982    0.18900710953553   -3.56708020243378
H           0.48512426383159   -0.00646123421789   -2.56160252395165
O           2.17257628177431    2.40947830183369   -1.43320778923580
H           1.68028596795009    3.21701460115019   -1.59795558186482
H           1.74323855015673    1.71883632621641   -2.00651749693548
O          -0.23265299556718   -1.16372242369465   -1.58833461622330
H          -1.12768750743924   -0.90859055342910   -1.33297041850018
H           0.32086189681862   -0.96707351034393   -0.80980725959599
O          -1.94340512578316   -0.85483612533627    2.18562869016167
H          -2.25480068565889   -0.34795778280004    0.76888292093561
H          -1.39739361215521   -1.66790274737087    2.04172461322803
H          -1.31065037198768   -0.18563342381005    2.49778814181937
N          -0.13103830937523   -2.74043898755972    1.54202676243133
H           0.52168269873332   -2.00318359788235    1.28553567075965
H          -0.29971483566254   -3.29750421099778    0.71347067242657
H           0.32064500886010   -3.33163090946695    2.22783193019246
