    26
        -50.46147689  Gyration_radius:  2.4655453638 Dipole_moment: 7.089
 S           1.48711363812978   -1.27923400766562   -0.55503487392735
O           2.27532141434234   -0.50356827248783    0.40587083465512
O           1.21026210327814   -0.51753714724412   -1.74928651983190
O           0.31419516333958   -1.85808352832989    0.07959128682195
O           2.38731320578570   -2.50270832953281   -0.99835611645586
H           2.28402697555609   -3.14227119748570   -0.29987697025296
H           0.02591292330282   -0.76626758305829    1.26570105729294
O          -0.06595037836725   -0.04028338502182    1.92610858527734
H           0.78738571691427    0.00167168377606    2.36290698312701
O          -1.28203680924323    0.59529876897926   -1.69197010629029
H          -0.44244504670420    0.15494933488358   -1.90355599483714
H          -1.86088146124284   -0.13322451125149   -1.36555802359338
O          -2.85622114367149   -0.08757059212385    1.84566478373166
H          -1.92663511238488   -0.10907734241944    2.11388855288283
H          -3.03928037206466    0.81066490176339    1.56186576637247
O          -2.39650414167401   -1.50285268014286   -0.49138259221829
H          -1.51463267056990   -1.85352942927370   -0.29976780293900
H          -2.73417573338419   -1.15407630073249    0.35283439202186
O          -0.48834645680330    2.07054866266471    0.28235148391433
H          -0.93626708012925    1.60250015515872   -0.48441061164837
H          -0.42838713596860    1.39400581837928    0.98711444900760
H           0.88349424904794    2.07442809230052   -0.25370633664488
N           1.87121668807963    1.80534875710838   -0.67596251966109
H           2.20711588894369    0.96507378099001   -0.11587982749096
H           2.53359954499381    2.57306857092905   -0.69484388682279
H           1.70480602040907    1.40272576976922   -1.60430599236633
