    26
        -50.45341036  Gyration_radius:  2.50237465436 Dipole_moment: 2.445
 S          -0.88802205194515   -1.14290333800198    0.72116152942220
O          -1.01088870300924    0.29377578177434    0.68477751892987
O          -0.29433827588191   -1.65824471339787    1.91311499658579
O          -0.07727868799107   -1.60046925936996   -0.52425436897430
O          -2.23427070687793   -1.80361740439876    0.46498282288216
H          -2.48153822373718   -1.55922985162279   -0.49447871074971
H           0.84657310181911   -1.19426118481736   -0.50727267755705
O           2.24069062414092   -0.52722759380194   -0.33210334489986
H           2.95443399337627   -1.12595903120120   -0.55995575739858
O           0.49910802270569    1.54109451039670   -1.14356792825018
H           1.31161004021202    1.02949570872252   -1.04608120356508
H          -0.08892390241961    1.22422962010201   -0.43295407130569
O          -1.12281493249154    0.59614797747139   -3.02262266485660
H          -0.45673867514355    0.95095359949227   -2.38454107212720
H          -1.63287934729534    1.35301747197722   -3.31606257765612
O          -2.65327750579958   -1.27755787837732   -1.97637223799196
H          -2.07592642540175   -0.54666609352340   -2.32628477248721
H          -2.35494778230506   -2.07245693024520   -2.42457121046989
O           2.07419173699381   -0.34986327895474    2.20435825087076
H           1.30456441316230   -0.93118175776256    2.32851224636850
H           2.27046818383224   -0.41887165107234    0.68191089472542
H           1.72731956106949    0.56294246915178    2.36682311179302
N           0.73974087603348    1.98651069609637    2.32645602675086
H          -0.06150817682289    1.53353242110350    1.89262278659238
H           1.03486775206589    2.73451538761704    1.71108038021536
H           0.42978508167724    2.40229431265635    3.19532203314751
