    26
        -50.45875076  Gyration_radius:  2.52027979231 Dipole_moment: 10.931
 S           0.46409845745723    0.93376271255961   -0.38184839285512
O           0.88598840030278    0.53279586474164    0.95954203878678
O          -0.79554161138971    1.62104986293370   -0.39335821315550
O           0.32677809883724   -0.40699877680694   -1.20452853100224
O           1.53996022696609    1.63664878580174   -1.08750061678854
H           2.43497018857623    0.63020873197134   -1.41261373054677
H          -0.44836763385830   -0.91146042200177   -0.82241368335513
O          -1.60965434548169   -1.69807660172891   -0.08738730974780
H          -1.42149417355221   -2.62424222443339    0.07238667627477
O           2.93467355700039   -1.03526518694645    0.94966132332778
H           2.10598018712910   -0.48892246291757    1.03468713917681
H           3.50858199886980   -0.74331082087483    1.66025375993273
O          -3.23353850645896    0.45215413829823   -1.04933987628303
H          -2.41304759691515    0.96781860730863   -1.05447705373923
H          -2.95900896756747   -0.45508061171347   -0.87615063367840
O          -2.89738180791522    1.66517760008007    1.44235686531272
H          -2.14279970336699    2.04175013842032    0.96844809224965
H          -3.44100867148964    1.28030013925793    0.73543459279286
O          -1.35863167064252   -0.41482401952778    2.10941467688492
H          -0.49949834431722   -0.01586659201657    1.88194698962558
H          -2.00823796648297    0.32563827336706    2.05310811471970
H          -1.59159511714706   -1.24572284757315    0.82315014463239
N           3.04974231140534   -0.30245858425920   -1.57253532840327
H           3.92774384809989   -0.11935606326906   -2.04687627853079
H           2.45872867269407   -0.93540781535565   -2.10602272969791
H           3.18256017924698   -0.69031184531327   -0.59533804593539
