    26
        -50.46044997  Gyration_radius:  2.45550648491 Dipole_moment: 6.758
 S           1.17707765083856    0.74376235009155   -0.70737259085519
O           1.58478340575913    1.82028679788223    0.14835596123384
O          -0.24042918644205    0.79827120367395   -1.06583397124828
O           1.37249365210757   -0.62585663298884    0.05975190359986
O           2.01491478901895    0.56169914741979   -1.89516406034663
H           1.70112142320382   -0.75716125590957   -2.26835093110303
H           0.55808060231714   -0.87177757158102    0.57746899629329
O          -0.75689060994185   -1.50012220981943    1.26715058561038
H          -0.48877201510928   -2.02070416361737    2.02616377108360
O           0.83719627046917    1.58392585581182    2.66991823272014
H           0.90866745969216    2.46976006588911    3.02972245304528
H           1.15777554507131    1.65357921037951    1.74331115852884
O          -1.04960552749490   -1.62297260210000   -1.49665645338597
H          -0.92068145163591   -0.64483224285793   -1.42787600176894
H          -1.14332289626872   -1.89845975139113   -0.57252410864816
O          -2.08602144881064    2.23999008801433    0.19138173534802
H          -1.34245469468580    1.82055483388756   -0.28881123479201
H          -2.84395594994823    2.18308241874586   -0.39223953593678
O          -1.65827781791149    0.64328191820406    2.32397462805854
H          -1.95916645142185    1.25694427692730    1.62370961516041
H          -1.19962474311404   -0.67142129899634    1.65973595024893
H          -0.78803980672701    1.00067477996354    2.60256717684124
N           1.38046336088388   -1.81719956320714   -2.43770685193993
H           1.97309851190487   -2.41169613408030   -1.86604107174181
H           1.44871159943962   -2.06850441552587   -3.41886361114347
H           0.36285834880694   -1.86510508481870   -2.08577173485904
