    26
        -50.45875085  Gyration_radius:  2.52037266572 Dipole_moment: 10.932
 S          -0.46578299898335   -0.20107355958009   -0.98802919219834
O           0.36427622965929    0.77099681796619   -1.64015320885370
O          -1.35649501669779    0.38464429293802    0.01288952954482
O           0.45136147678502   -1.21692837942365   -0.20089359285717
O          -1.20261686654460   -1.07583042348838   -1.90528361026665
H          -1.47541362628910   -2.19949623877150   -1.14274234654059
H           1.04526129475422   -0.67845685103074    0.39796091228388
O           1.86357437885187    0.23580544511523    1.39953788444758
H           1.90695654416548   -0.09914215190604    2.29662176413705
O          -2.55757315267853   -1.38209884197629    1.45926103775013
H          -3.46459327480587   -1.08678140366768    1.55778227079615
H          -2.08538785235977   -0.64066878368116    0.99034775649624
O           1.15362369685182    3.33727322567635   -0.87867735071281
H           2.06263219346461    2.99545653005138   -0.89245129064020
H           0.66174224866567    2.69513566840132   -1.40926217239005
O           3.02599864199691    1.27031242871247   -1.00109481866241
H           2.20654112701220    0.98307418985524   -1.43126801904128
H           2.98587590858374    0.90168583200844   -0.11177850208106
O           0.18722280696610    2.16440835042650    1.31887841938356
H           1.26246930717641    1.05521742954996    1.43366153549745
H           0.52487566073454    2.77275058385586    0.61936015253968
H          -0.51959467633205    1.65072315054509    0.88809193798929
N          -1.62345456239170   -3.01555477983566   -0.37717631777018
H          -2.09876524541491   -2.52286126842772    0.43155782499509
H          -0.68977008844084   -3.30149352118250   -0.09271111400894
H          -2.16296416473002   -3.79709773212802   -0.73442949983540
