    26
        -50.45875076  Gyration_radius:  2.52030753545 Dipole_moment: 10.931
 S           0.31807737119114    0.92062854810088   -0.53309674083629
O           0.99176124877162    0.67544288922173    0.74132770424005
O          -0.97498520683271    1.52348214555488   -0.37892756399442
O           0.14813966640916   -0.49786744494048   -1.20566054089402
O           1.20017264317772    1.61967949651214   -1.47263513502284
H           2.10274799394416    0.64500301370540   -1.86654866753960
H          -0.50900048105127   -1.01152863968304   -0.65276322835913
O          -1.46354698750362   -1.79620203257428    0.33753796158479
H          -1.17938998236462   -2.68961356785288    0.53707332473057
O           3.12552225135899   -0.75452943714628    0.49954821661010
H           2.28311988017815   -0.25579960419172    0.68419221573840
H           3.78724681013591   -0.36102711005200    1.07125057811271
O          -3.39019914388797    0.14758015077204   -0.49670439237392
H          -3.02027351810323   -0.72027472984620   -0.30072535540719
H          -2.62534011768077    0.71080529493265   -0.68885298354072
O          -2.73121437094438    1.60926025420011    1.78845332284705
H          -3.35539352166414    1.12609149972971    1.22246499897927
H          -2.09984748235347    1.98580740975162    1.15965877387767
O          -0.94386393568552   -0.29789644854214    2.34272546421261
H          -1.32603348235685   -1.25982566784358    1.19042806268115
H          -0.16978849541971    0.13093406839647    1.93538018109976
H          -1.64957669980064    0.39160611860170    2.34096420111667
N           2.75229260955882   -0.25824785579510   -2.05500662375386
H           3.07925959362032   -0.54264239947536   -1.08798190632116
H           3.51976439111628   -0.06626851713380   -2.69026026353020
H           2.13034896618737   -0.97459742440412   -2.42184161426022
