    26
        -50.46145178  Gyration_radius:  2.45640554032 Dipole_moment: 3.149
 S           0.33354192414351    0.90429388497169   -0.93486241426919
O          -0.07939856060634    1.55907147652248    0.31427541811771
O          -0.81957948123580    0.48339107274180   -1.71270698678469
O           1.22320831081808   -0.21531560001692   -0.65553271514595
O           1.12371446907484    1.97792922840272   -1.72738725885100
H           1.36006699383448    1.48549788679222   -2.55577365345431
H           0.56933843474118   -1.36252179997073    0.21899882665400
O           0.09682311267370   -2.07298967270781    0.73579586452402
H           0.67278975736212   -2.83864902354347    0.71443078960355
O           1.38072526445364    1.13931733501270    2.49662473542120
H           1.46852636451684    1.99311433897905    2.92327452195806
H           0.99089769580042    1.31360910998631    1.61417153923449
O          -2.28655191459014   -1.11513273131917   -0.25527201878582
H          -1.59693610360614   -1.73490135489131    0.03700056917377
H          -1.85211976559305   -0.55274943235053   -0.94314344617265
O          -2.06649163670550    0.60382678237483    1.55241554333089
H          -1.35545621517602    1.14121550037995    1.05272668906583
H          -2.33924465917643   -0.12316891987833    0.83971612963755
O          -0.48271101782213   -0.68634638859972    2.98382651904498
H           0.27641083876617   -0.05787538348800    3.00133092773825
H          -1.48718525948359    0.06465098093827    2.27776183487061
H          -0.24090527988968   -1.34944739348602    2.30501091018462
N           1.34741796307463    0.11364886942282   -3.52511922695621
H           1.65111361983374   -0.14692715081145   -4.45504540855295
H           0.34296409231121   -0.01076199943068   -3.45346715883124
H           1.76904106250052   -0.51277960598719   -2.84905057076221
