    26
        -50.47000636  Gyration_radius:  2.45592842806 Dipole_moment: 3.922
 S           1.00722244260719    0.83616239300284   -1.58843259963023
O           0.94888510414816    1.94238529625131   -0.64672964443511
O          -0.05233283855033    0.84881977604366   -2.56494323421634
O           1.14552004115918   -0.45094393400077   -0.91036505573087
O           2.36721915376748    1.00834576012082   -2.39207091146202
H           2.15785346170945    1.72226752198605   -2.98476805073105
H          -0.13154906122220   -1.42922854009087   -1.01928710633480
O          -0.91940630832740   -2.02881859470792   -0.99420650602160
H          -0.87636150102989   -2.55984454046006   -1.79077586968754
O          -1.33377197383142    1.73979726711723    0.71488449762141
H          -0.75994249297491    0.76243731328129    1.72349018243723
H          -0.53393337743890    2.00084774761117    0.21445546887092
O           2.19867596809234    0.56690757346190    1.25766777072102
H           2.01036871144607    1.42578152533643    0.84616237836262
H           2.03511462440182   -0.03904777714766    0.50765574703242
O          -0.56488233052406   -2.47520356141703    1.63757495560197
H           0.27264177317101   -2.94286637903638    1.62353729759472
H          -0.84034776648612   -2.39355563059611    0.70180973302403
O          -2.35397751873290    0.34728059733849   -1.28249680113342
H          -1.64631610040462    0.62570239172408   -1.89499577228505
H          -2.16942191193267   -0.58723691167629   -1.10996820162015
H          -1.89690702521578    1.27849532444693    0.04656320092499
N          -0.17159566614881    0.10378653954108    2.35394218869727
H           0.83634125108412    0.27713446911617    2.07130043372921
H          -0.40572604125380   -0.89425709381814    2.14625643885186
H          -0.32337062751137    0.31485147654162    3.33373943981449
