    26
        -50.47000634  Gyration_radius:  2.45606311902 Dipole_moment: 3.924
 S          -1.76047944898165   -1.04759388150596    0.19954743499706
O          -1.81695598298969   -1.15124858442516    1.63563810856244
O          -0.88751382867026   -2.02872906485613   -0.42450370124326
O          -1.47804995785255    0.30854557374370   -0.26583461940946
O          -3.22537629159743   -1.35307853257882   -0.33543836823587
H          -3.46191915596549   -2.12571427163119    0.16645951871844
H          -0.84248559033439    1.29662568013528    0.83877717935578
O          -0.38070060530190    1.91377817419248    1.46058077708894
H          -1.06890321484633    2.34324226695736    1.97078255562695
O          -0.40247804455111   -0.46560339532333   -2.52177048942545
H          -0.93184322348683    0.04984647798706   -1.88112830160653
H          -0.49888994874508   -1.36234901240238   -2.16238698864155
O           1.59151677614341   -1.60498965397492    0.45849166229278
H           1.87785517886098   -0.52690345775395   -0.57049070033267
H           0.72601790628959   -1.94515677789479    0.15263556077870
O           1.33347236712988    2.67001961168503   -0.47362833660116
H           0.73267975221875    3.11260385028522   -1.07639036826348
H           0.81151394915648    2.48140477057190    0.33266853097335
O           0.58238857635803   -0.44288102492762    2.60392190941696
H           0.49302675607438    0.50076000277656    2.40736773818851
H          -0.30680398181587   -0.81084224957581    2.43863806826992
H           1.39783149457286   -1.21533370474374    1.34562568335288
N           1.90347574887314    0.18781555751221   -1.38637392738779
H           2.76568861039993    0.10125176511453   -1.91238125267225
H           1.78822627569765    1.15904577591696   -1.01564360002641
H           1.05870589334271   -0.04451590533222   -1.98516406377714
