    26
        -50.46412584  Gyration_radius:  2.39980527944 Dipole_moment: 4.121
 S           0.57780414026911   -1.31899599907679    1.05630483480201
O           1.50224467764351   -0.42524639211264    0.32305334101577
O          -0.79180986375397   -1.12048210976370    0.58872720476695
O           0.63063247972392   -0.88687326082005    2.54744645274316
O           1.00179113592421   -2.69338837502990    0.92669616733343
H           1.25815575486605   -2.76713790403658   -0.79855899656442
H           0.30112134278123    0.04887639755644    2.56378131174817
O          -0.13227100754736    1.64248163297076    2.44521763653854
H           0.32146224559751    2.12603349198867    3.13779679618500
O          -2.26902219190510    1.07571103058016    0.64766772060486
H          -1.87377623455518    0.18037442021868    0.68446679456950
H          -1.86718230217742    1.53893587543356    1.39143041800641
O          -0.91131143187824   -1.11668010176089   -2.04077194179202
H          -0.91161124231109   -0.14714734173540   -2.14929429336756
H          -1.07284132161131   -1.22938781344149   -1.07689659721657
O          -1.11966873328633    1.61445615424079   -1.66303829700710
H          -1.62351480602165    1.44062818706995   -0.82160118238500
H          -1.67894043853263    2.18275854175397   -2.19411891375713
O           0.96051031153068    2.14541596689929    0.13608183685787
H           1.31491475532322    1.23144648945354    0.15220760457154
H           0.30632640869737    2.13729469271201   -0.58097220277370
H           0.28398020771482    1.93367029971986    1.58032477619674
N           1.43842567241150   -2.10098211132701   -1.58397889452354
H           2.10094999943474   -2.44373475408650   -2.27138702819036
H           1.76484783770725   -1.26809054086184   -1.01353921688120
H           0.48878259384592   -1.77993647637711   -1.98704530158566
