    26
        -50.47163241  Gyration_radius:  2.41160337052 Dipole_moment: 2.529
 S          -0.40406439693333    1.73426565201946   -0.80661146281869
O           0.46300532732489    1.28312460723545   -1.88261630275206
O           0.28652229735517    2.48302798928973    0.21966153116207
O          -1.21202447473168    0.64912551538645   -0.27286494031386
O          -1.45103551589273    2.73427257033953   -1.46250292083802
H          -0.92978999584494    3.51307573062470   -1.62947150864517
H          -0.65113971946356    0.71841457003461    1.33008956750036
O          -0.31508429528537    0.61485407481538    2.24323711155923
H           0.04185954250313    1.47932917060048    2.46050602331422
O           2.51224407556718    1.06098259222455   -0.12825195945828
H           1.87755157764131    1.72986440286141    0.18541651036319
H           2.24137930464518    0.92610289108764   -1.04469375149041
O          -2.14161002217069   -1.45049735548258    1.16171919944898
H          -2.09671839632655   -0.68090154648221    0.56904287944929
H          -1.87883822713203   -1.10613663710901    2.02189383257076
O          -0.37302707867606   -1.13453492071086   -2.36314809330420
H          -1.32241821535837   -0.99552912401872   -2.38988845956424
H           0.00797779804333   -0.22928832716800   -2.25471259486179
O           1.72950294924031   -0.96045551063848    1.41364729138316
H           2.19025852342008   -0.28836042937602    0.85974585361506
H           1.06254377837290   -0.44730733316724    1.91441391407482
H           0.84305549074209   -1.83450030805812    0.52171212203583
N           0.07864924232806   -2.35455136248818   -0.03539806028390
H           0.28883232225191   -3.34329793394528   -0.11122400519275
H          -0.02079579712893   -1.91407107603121   -0.99140481550969
H          -0.82683609452916   -2.18700789184191    0.47170303854920
