    26
        -50.47191015  Gyration_radius:  2.46926058677 Dipole_moment: 1.467
 S           0.26031055578570   -0.49187858702956    1.91043475098036
O           1.41343173171301   -0.59041829673983    1.03548321282137
O          -0.24398100971375   -1.75751568064724    2.38310985688297
O          -0.77202870506292    0.36169456139869    1.33423808857592
O           0.78309943853439    0.26737272185785    3.21477371891831
H           0.38185056085356   -0.22581743847305    3.92292948381664
H          -1.46805494414497    0.74685658347990   -0.11837206262796
O          -1.84575431523220    1.02136202925026   -0.98434065022124
H          -2.73976792479640    1.31114618745285   -0.79807102239120
O           1.03834105585524    2.29329342519723    1.09173366722409
H           0.30750267616945    1.67224172481806    1.26586254899485
H           1.81339475048032    1.86579542230779    1.46117265006757
O          -1.14154060119898   -2.75438351635661    0.10760201442120
H          -0.86509260328433   -2.36239805560326    0.96158567130824
H          -0.96668483400161   -3.69419707378150    0.18215963431871
O           0.55556601759892    2.32016149682723   -1.55483595297888
H           0.79990971575380    2.52638115719575   -0.62783906503654
H          -0.39025350573819    2.10283929963936   -1.52101375876660
O          -0.95727950926655   -1.30208010095239   -2.15675750443819
H           0.48534117618340   -0.71698875448886   -1.92010103224843
H          -1.08393921844516   -1.91305388728302   -1.40412596726821
H          -1.46921972125126   -0.50823961841742   -1.92302222162876
N           1.34476640105246   -0.18640658518897   -1.57331591346697
H           1.43462581545735   -0.38168599240775   -0.54323468010983
H           1.13979611561945    0.85579061906174   -1.67825299054496
H           2.18566088108756   -0.45987164112023   -2.06780248662523
