    26
        -50.46165256  Gyration_radius:  2.45521594754 Dipole_moment: 4.112
 S          -1.04127371260430   -1.10754383592265   -1.60188547362094
O          -2.35813261092536   -0.58579445998416   -1.33358403824844
O          -0.64796515079462   -2.18772769168044   -0.71141023751627
O          -0.01330304335698   -0.07138319890756   -1.67151382122606
O          -1.09037479410101   -1.72596479823730   -3.06218245477329
H          -1.91827371521072   -2.19396287330196   -3.04732437275252
H          -0.24253467500621    1.43220449152703   -1.09705562819196
O          -0.39038439271853    2.30403057854760   -0.65749441233050
H          -0.82700885548755    2.85578818728697   -1.30808789805701
O          -0.62659232449480   -1.30270408262731    1.77014216071161
H          -0.71222167427474   -1.78610851245147    0.91759694700400
H           0.73351994450986   -0.89897656124039    1.78117970574348
O           1.94980882297051   -1.50306793349172   -0.74735511589379
H           1.38552698927823   -0.85390784565634   -1.22399625545350
H           1.36528663961282   -2.27255469668590   -0.69051830504551
O           1.74013504200488   -0.57159948710910    1.60848933476866
H           1.69994135115956    0.48307863512175    1.52803026660632
H           1.95669895699474   -0.94893409022030    0.67606883338303
O          -2.04340122066353    0.75466948224248    0.94998348243585
H          -1.51061745628873    1.47727112537795    0.58356719650760
H          -2.36827054117149    0.27152537764023    0.16502910362921
H          -1.20339799379045   -0.50556736924592    1.65594872228243
N           1.57650640225087    1.96852198360735    1.40846141964359
H           1.20189648656769    2.37336108214145    2.25741114983536
H           0.92653771647292    2.17495423911330    0.64968908855965
H           2.45789381905151    2.42039224424809    1.20081059200110
