    26
        -50.47523164  Gyration_radius:  2.42162782896 Dipole_moment: 2.929
 S          -0.13808167860427   -1.16976993982687    1.44182816535217
O          -0.08346462258991   -1.70053487194573    0.08598733961270
O          -0.83727410531795    0.09990745197848    1.50303005892719
O           1.17225362582782   -1.13526396300664    2.05888390773025
O          -1.00809667256075   -2.18200030785068    2.28507191769725
H          -0.42574976741882   -2.93239652385516    2.30590755522699
H           2.10366191434573   -0.01290433022799    1.40130930532477
O           2.64235117551913    0.66233372822509    0.91211687952068
H           3.43679449387426    0.79282978596744    1.43226253686677
O          -3.23199626133534    0.35020119874721    0.38987195168705
H          -3.52474770771751    1.23990496519024    0.59299189991276
H          -2.41224847107108    0.20889958483951    0.90719519745381
O           1.96894687031710   -0.75477505124036   -1.35452707540772
H           1.29884009954314   -1.28161194793891   -0.87329612770271
H           2.44803780276195   -0.27174567854698   -0.66093547298675
O          -1.83489130062361   -0.68489599101508   -1.67363941607489
H          -2.52099814197293   -0.32068339458692   -1.08179384050572
H          -1.27294556454638   -1.23077832760582   -1.08761505553529
O           0.39684420089802    2.12668495891751    0.29703121141586
H          -0.14814695507010    1.50052789375715    0.81624915506523
H           1.30954148506065    1.87512294791689    0.51664362017474
H           0.17201149598327    1.59717155746057   -1.20579318701691
N           0.12962406800320    0.99043125127095   -2.07409656787771
H          -0.75302731110258    0.38429811551177   -2.01961831150349
H           0.94451966281464    0.31555231485782   -1.98692422690870
H           0.16824167497547    1.53349456298281   -2.92814142040876
