    26
        -50.47523166  Gyration_radius:  2.42150836046 Dipole_moment: 2.942
 S           0.86469409735627    1.25198187040804   -1.07269416483545
O           1.55282621596057    0.70207737277675    0.08792826282554
O          -0.56152954288570    1.39136027274359   -0.84640889469617
O           1.18693884076862    0.52418493758113   -2.28317579093390
O           1.41488216206639    2.71881633548926   -1.26781331030118
H           2.30593201264845    2.53356191879741   -1.54044904809013
H           0.52814612267704   -0.93390632768450   -2.28855515827859
O           0.13693105746498   -1.84195607504318   -2.20034575763124
H           0.21288472582494   -2.24674917182717   -3.06584958658810
O           0.24638603577098    0.82636296328604    2.42709956733560
H          -0.39644096941601    1.54167819239453    2.25636418524699
H           0.86853714499544    0.87373928015468    1.67346263226109
O           1.53035855169987   -1.97634558009548    0.17445940264648
H           1.14811649279878   -2.16662130309205   -0.69826285464518
H           1.74007713364745   -1.02049313944563    0.15166250517114
O          -1.44702824929663    2.61866570019645    1.33211919877709
H          -2.40212615964073    2.63234687050844    1.25425207807069
H          -1.10904203795370    2.28890287221013    0.47392316249581
O          -1.89556853513260   -0.89893018093045   -0.60481418726603
H          -1.55554353207290    0.01221831990919   -0.71884428681302
H          -1.38756033906946   -1.41719585210783   -1.25117747372158
H          -1.28224702168043   -1.30657402674718    0.82579211685043
N          -0.61774024858294   -1.50576819382160    1.62749263176546
H           0.27161099388980   -1.86683794923141    1.17402173938689
H          -1.00326396671085   -2.16153521269544    2.29618887930280
H          -0.35023098515848   -0.57298390376883    2.08362417160868
