    26
        -50.46321432  Gyration_radius:  2.4577888483 Dipole_moment: 4.012
 S           1.13781452617428    0.80602258822283   -0.81081747982594
O           1.72501412717208    0.17802709984793    0.38389588824803
O           0.91448414937837    2.22019855429677   -0.63851231054089
O          -0.28693868460215    0.12056461045872   -0.96928986302014
O           1.83735729791086    0.40741419685177   -2.01626734450216
H           1.97949640202894   -1.15970280954771   -1.72969019883786
H          -0.82103148937348    0.33425676336745   -0.14874136976860
O          -1.60489297196908    0.74135280619694    1.18079308989434
H          -1.95827421399446    1.55760024654247    0.77956258134856
O          -1.52400157180581   -2.04528147030380    1.35349022626365
H          -1.57740383228125   -1.07587897388913    1.37060949143050
H          -2.30379695640680   -2.36866110814805    1.80685518068239
O          -0.61981858386052   -2.61949632602750   -1.12940760542898
H          -0.82199851451869   -1.73566547102477   -1.46713598888569
H          -0.94639703658863   -2.59905295525054   -0.20652459279962
O          -1.61397055921331    2.99108805986436   -0.28014758633520
H          -1.96197474447043    3.27159097987085   -1.12719258739800
H          -0.66143877756383    2.80849325556976   -0.42845558402757
O           0.60716924242420    1.72046879973402    2.21474070205960
H           0.68114186285785    2.57844724364707    1.78686257429768
H          -0.85468612519069    1.06317308614862    1.74579713828085
H           1.15810145950484    1.12277457899457    1.66851315409111
N           1.92196981840025   -1.94973814993553   -1.01962717477594
H           1.95905711449462   -1.35320085534166   -0.15106520738442
H           2.68064373518947   -2.61906743852250   -1.08969268028822
H           0.95437432630809   -2.39572732161511   -1.07855244276926
