    26
        -50.47157785  Gyration_radius:  2.49379707511 Dipole_moment: 3.795
 S          -0.52153893746368   -1.21695757346939    0.65966993013907
O          -1.26990831749734   -0.04091188641732    1.03648928667518
O           0.91685848770931   -0.99560340901050    0.74283784993166
O          -0.90653971435665   -1.69844798316805   -0.67353982951096
O          -0.83198114971530   -2.36314928999492    1.67461700739505
H          -1.75675671899123   -2.58913090394255    1.46296088554248
H          -0.62009173869078   -0.55742516074546   -1.76542037664974
O          -0.41655592478974    0.17128078713748   -2.40760422394169
H          -0.81332481526702   -0.09151835736804   -3.23970552350487
O           1.66717955224938    0.88816600466091    2.40674837590093
H           1.28003774385080    0.14308353794969    1.88916626517960
H           2.46899412426625    0.54044686546157    2.80119429547761
O          -3.04994438728249   -2.84507342410990    0.30532803523220
H          -2.40653821404866   -2.38415545838658   -0.27073398340529
H          -3.12609775236325   -3.74067095235465   -0.03169529511067
O           2.09632979654188    0.26400074711002   -1.29349370147138
H           1.36106847367376    0.24662882200737   -1.92860920050734
H           1.80949833013833   -0.34503373510604   -0.58051212696379
O          -1.01930565313804    2.07004196806567   -0.49027206380358
H          -1.24932970069878    1.36940896384176    0.16541545379132
H           0.43262459447675    2.38381362164586   -0.05394248390320
H          -0.93134450186501    1.58485020256512   -1.32751355326457
N           1.48395231233365    2.35464390619037    0.17685408502402
H           1.92466998420064    3.26149708766651    0.07870415036764
H           1.88922556672741    1.62182770764772   -0.48145564492939
H           1.58881856000889    1.96838792207634    1.14451238629696
