    26
        -50.46073155  Gyration_radius:  2.41335026737 Dipole_moment: 3.476
 S          -0.84546734872710   -1.84470058989656    0.21855336095534
O          -1.05832498666982   -1.56609208950120    1.62502034732666
O           0.40266887869735   -2.51089202149915   -0.06886554108038
O          -1.04360438357836   -0.65216547770997   -0.60829227909518
O          -2.01223954948030   -2.82346081635381   -0.23297814033852
H          -1.87499023827221   -3.60200666623868    0.29758672131009
H           0.49512595755765   -0.57809317575352   -1.33131708718736
O           1.40995310250274   -0.43919096581717   -1.64812657174999
H           1.81046301029846   -1.30972198620965   -1.57628956682764
O          -1.79001624241161    1.02022903367110    1.28119665451897
H          -1.67544861713862    0.39475910100151    0.53297745382485
H          -1.70226008827424    0.45168862789608    2.05409792761604
O           1.53168952910564   -1.15045533500660    1.96422084698233
H           1.61501923921787   -1.82405319855664    1.27396972294662
H           0.58275470832417   -1.19595016513686    2.17349278602879
O           0.10439275619871    2.50877026344708    0.44376378545118
H          -0.64476115858959    2.01249891445100    0.92184542998088
H          -0.14171105554699    2.37378492007405   -0.58881815914158
O           2.07726180477433    0.99549443291964    0.52116387468810
H           1.96208992428048    0.27906623087505    1.19334439511652
H           1.98868153533070    0.53960865604741   -0.34612750855082
H           0.98562570512577    1.91961128410505    0.55769869835935
N          -0.48749776984273    1.88766812600127   -1.94274626651465
H          -1.06062742249273    2.46212977167496   -2.54631034242974
H          -0.98651007715358    1.02598895598923   -1.73171408585834
H           0.35773277676766    1.62548417948909   -2.43734649642280
