    26
        -50.46073149  Gyration_radius:  2.41346314017 Dipole_moment: 3.485
 S           0.41113216882002   -1.21323813798293   -1.58962615769843
O           1.11992155421828   -0.16125675867513   -2.27902965472811
O          -1.00469616652391   -1.27274850346338   -1.89438118515828
O           0.65669330355058   -1.19579075439771   -0.14576733859499
O           1.03772618728564   -2.59174729386344   -2.06947666152093
H           0.88254768764182   -2.59717204611361   -3.00874389153893
H           1.50853477580140    0.27537991447557   -0.04497810501766
O           1.87470779018072    1.17667690657820    0.05482838236342
H           2.21511958992006    1.38256078205966   -0.81985386000016
O          -1.82952632001502   -1.44025341105784    0.68171333234041
H          -2.29139626316890   -1.43112393476993   -0.16377562093193
H          -0.88655739211437   -1.51153729605116    0.41751042234206
O          -1.38291100116781    0.67644425281868    2.03349136177787
H          -0.42815225133824    0.34230493142228    2.38668191315029
H          -1.72953273165168   -0.13100298674846    1.52001978145729
O          -1.09508162454986    1.36226072341324   -2.11293360159195
H          -0.18937249465700    1.24962758859420   -2.43589004498992
H          -1.40978270363158    0.44260117896925   -2.07800142168020
O          -0.56347903281278    2.27411725969100    0.31065355639831
H          -1.12399643042132    1.41329638459684    1.30916445511967
H           0.39036751796726    2.03559947791304    0.28317293519839
H          -0.90391629456207    2.04716528837631   -0.58970724429151
N           0.93849989527926   -0.18394569675481    2.57856379630552
H           1.01628974119978   -0.84309096496796    1.80675711829610
H           1.17176314995134   -0.65659018735916    3.44166186552982
H           1.61509733482712    0.55146326329258    2.40794587748255
