    26
        -50.46073158  Gyration_radius:  2.41342297274 Dipole_moment: 3.486
 S          -1.15105837746068   -1.60910827291190   -0.50368997563949
O          -2.33313491259528   -0.87673665712491   -0.09475456596376
O          -0.56893760895646   -2.42032222832580    0.53909341187328
O          -0.16503274173371   -0.73657807910330   -1.14547337385010
O          -1.60505481151283   -2.59432253417638   -1.66400597590778
H          -2.23876508996238   -3.16625411549927   -1.24241883681805
H           1.14797446660130   -1.01299034284813   -0.09735410686942
O           1.86519557690495   -1.04957909239830    0.56651056808833
H           1.70493897651414   -1.87617409267855    1.02960252057973
O           0.48135225605899    2.50350146677173    0.07864427076581
H          -0.41145487353398    2.24451591253701   -0.33542813681279
H           1.19161727486593    2.05729079111752   -0.58769568337024
O          -1.32892819695798   -0.55965565434806    2.33220126041862
H          -0.93076043483806   -1.42396706925501    2.15417610331915
H          -1.94290205453948   -0.46530325371025    1.58373356704661
O          -1.54116145980537    1.50639478395269   -1.11417672439215
H          -1.06555612956584    0.66567873037093   -1.29055715839114
H          -2.33113135604944    1.21442421505178   -0.64624841453485
O           0.80903729529279    0.95948250529736    2.00218425072965
H           1.34868237820512    0.25505013899159    1.57768937002934
H           0.58920742795005    1.92245062507422    0.96506063447349
H          -0.03400883554591    0.50943309654083    2.25677230573410
N           2.01158998578384    1.18546194859376   -1.45364404818933
H           2.44355944890139    1.57282313429901   -2.28198036179006
H           1.33631846171693    0.47617620356650   -1.73130053565881
H           2.71841333424237    0.71830781020218   -0.89694036487740
