    26
        -50.46247239  Gyration_radius:  2.42034503301 Dipole_moment: 7.253
 S           0.84344621417186    0.83540799462810   -0.74995143076070
O           0.27799692284311    0.68165020925682   -2.06685285051884
O           1.44319713825848   -0.39331119044783   -0.23934749662842
O          -0.31615761598985    1.20931920242037    0.25441696747428
O           1.75303573094451    1.97239097300635   -0.61392052868495
H           1.80102476510719    2.09823636324859    0.80274766894614
H          -0.77180841910664    0.39425527586487    0.60686484820759
O          -1.42923830189189   -0.84897380321988    1.37185004143293
H          -2.32369281592445   -0.61831683208761    1.62976041962808
O          -2.31656576514938    0.14089029863083   -2.02664523560309
H          -2.63749887876319    0.27660214460769   -2.91937760469818
H          -1.37331945473493    0.41235441633097   -2.03481409099510
O           0.54474654108437   -2.14565171216664   -2.04038207789112
H           1.01528042162658   -1.66525579175379   -1.33486044201533
H           0.40055318343493   -1.47466731131578   -2.71476305365775
O           1.17414673742632   -0.41077236745311    2.33429720430177
H           0.23717688513121   -0.65186614016375    2.37051304658198
H           1.41892738964838   -0.60153731372073    1.39685463575734
O          -1.82031503935095   -2.21086200859202   -0.76204477470581
H          -1.53918800208934   -1.48736761456424    0.59005473256628
H          -2.19216897246186   -1.46195022898039   -1.26628228399540
H          -0.96350312478967   -2.40119252127192   -1.20287708919289
N           1.72533546485411    2.10924157420238    1.91355923106191
H           2.60042725907989    2.40919798847769    2.33249505652264
H           1.48139340715355    1.09702731271503    2.20110473216719
H           0.96676832947423    2.73515108233263    2.16760036469466
