    26
        -50.46167928  Gyration_radius:  2.40110601537 Dipole_moment: 7.740
 S           1.55358717692185   -0.08278933597235   -0.00624927444720
O           2.16560980204130    0.24505357081344    1.24654744583465
O           0.55501161402504    0.90663232544952   -0.43326644441098
O           0.73831890035548   -1.43244046680065    0.16043822181874
O           2.46784367482105   -0.39246552835547   -1.10111209669322
H           1.56802062894557   -1.00931617167511   -2.01496352279514
H           0.14613556369170   -1.34598046653195    0.96019577340848
O          -0.84243332926040   -1.14294833190969    2.19525057250122
H          -0.70888491161331   -1.82055653100565    2.85987769887914
O          -0.79633830798090    2.63636872251473    1.17111721530144
H          -1.67376101890234    2.32536815530012    0.93026714342997
H          -0.18633901872482    2.21216530820101    0.54305228908120
O          -0.88009619712608    0.58269548312089   -2.67538741858513
H          -0.29893573502228    1.01741790519783   -2.02063656701290
H          -1.68895025063992    0.39670806421751   -2.17825677391079
O          -1.99581629103169    0.04471579377963   -0.14095327983196
H          -1.06850967380420    0.34316825322927   -0.15382326075851
H          -2.07381191300644   -0.48227025296888    0.65998744192869
O           0.30985026879073    0.99101202217141    3.02218294287281
H           1.13619196152890    0.81980235028965    2.52886012702379
H          -0.10895200814699    1.74562625671963    2.56144791618481
H          -0.46724507762202   -0.29014039585008    2.59646100877884
N           0.73433994784185   -1.48228651003775   -2.57752242674215
H           0.34213833690950   -2.17307969386539   -1.93986979277598
H           1.05442816119710   -1.90842028121534   -3.44150553936907
H           0.01859767576439   -0.70404023480333   -2.75213939971628
