    26
        -50.45084754  Gyration_radius:  2.48292502009 Dipole_moment: 1.858
 S          -0.17227193257062    0.32293103274150    1.50419864099280
O           0.52096162094143   -0.81565292027239    0.94225117233579
O          -1.43723491398433   -0.01474414737265    2.09020097924582
O          -0.37200998479983    1.38580007695014    0.40310928832647
O           0.70608397634869    1.03481701330664    2.50902311816277
H           1.49011459211736    1.50409023117072    1.99244717765197
H          -1.09886857751950    1.08974719438492   -0.23631116128852
O          -2.16509484106658    0.42432467416649   -1.13964185397461
H          -2.94578759214355    0.23932667766541   -0.60724595398386
O           0.47939933634909    0.16341015938306   -2.66884833796592
H          -0.26611327210421    0.76164726058833   -2.57820262939244
H           0.16043406500427   -0.70725397647618   -2.40575512367259
O          -3.03623700984679   -1.62869687830737    0.69402028174609
H          -3.63816218155847   -2.09408778754646    1.27624516062362
H          -2.47937100357129   -1.07012126416302    1.27446639295089
O           2.61506931515279    2.04155774794669    1.25517190130144
H           2.65044286629715    1.43621217674272    0.42315144714234
H           3.41522769586855    1.87126279059678    1.75760380915776
O          -0.88972343812508   -1.88778387375576   -1.04898622116942
H          -0.27301952452733   -1.62132052818513   -0.33632607258062
H          -1.63865125664260   -2.29156339935815   -0.58834654527282
H          -1.74397653415804   -0.46294073196724   -1.27428889643789
N           2.59805268467209    0.30199281219744   -0.65346750535517
H           3.43693497490612   -0.16387734807471   -0.97578256917766
H           2.04847224022645    0.55059721649949   -1.47403621135025
H           2.03532867472655   -0.36967422895237   -0.13465025805659
