    26
        -50.45084734  Gyration_radius:  2.48291784748 Dipole_moment: 1.866
 S          -1.36208823314056   -0.05724334020185   -0.73499072169339
O          -0.33401799614535   -1.07497633743269   -0.74409389520736
O          -1.45400168512565    0.66852243136005   -1.96880990856244
O          -1.09429471690601    0.92021358599230    0.42902865846405
O          -2.70098679105298   -0.66026626111673   -0.37187916969153
H          -2.67566845166667   -0.94195098470779    0.63888949242923
H          -0.31256290828930    1.52188764919525    0.20214466270928
O           0.94388590800449    2.27788713869790   -0.29413280143993
H           0.73744817000438    2.69557614678059   -1.13685211026257
O           1.95225552492482    0.34229354861464    1.85770652874227
H           1.62594493854972    1.24066804139584    1.76610504906765
H           2.30483343697903    0.09399507522928    0.99568504432450
O          -2.56216639383531   -1.41620183739536    2.00294471300999
H          -1.54756812973961   -1.55064971196587    2.11316759028580
H          -2.96549587280923   -2.28584103724188    2.05530204259859
O           0.83007816104464    1.49219128226521   -3.07124152401848
H          -0.03809187893694    1.18087273062448   -2.74184501920770
H           0.72736441083041    1.60409899384775   -4.01719681151199
O           2.07392397922882    0.01997231588345   -1.07263927068355
H           2.05079054646585    0.31696416085101   -1.99321892096034
H           1.52084240348110    1.50903746204416   -0.53617426217351
H           1.26673348790117   -0.52429611877518   -0.96589493558205
N          -0.01192218455467   -1.82401850909023    1.98496575783820
H           0.56344002807960   -1.04269384748952    2.29423679060267
H           0.05298307042541   -1.83233414157779    0.96878066858875
H           0.40834116629498   -2.67370844581258    2.34001233237108
