    26
        -50.45084734  Gyration_radius:  2.48296800283 Dipole_moment: 1.867
 S           0.91977198046166    0.42652311002345   -1.16985523036081
O           0.26993444991648    0.77173230283732   -2.40110839087597
O           0.64653445841682   -0.92662567921355   -0.73736364648769
O           0.49112098451643    1.40786424662514   -0.05837322208045
O           2.41088583484101    0.65883948588226   -1.27240091463823
H           2.81465550944949    0.66137189054320   -0.30344111491451
H          -0.51824452237218    1.47883233722516   -0.03005966145622
O          -2.06206168595425    1.38291841872909   -0.09106179611502
H          -2.34963909769517    1.62296150881165   -0.97812062155159
O           3.34713229326260    0.54781727105033    1.03868151284164
H           4.15230287380980    0.02625910740912    1.00119136476352
H           2.64010531396137   -0.02856615705070    1.51595886573792
O          -1.24162526448669   -0.19306934286808    2.40709302829500
H          -1.62114106783499   -0.78619375612914    1.74889334500996
H          -1.48945993600699    0.69604235214570    2.14251838813778
O          -2.29409993815647    0.08794032540685   -2.66137061776380
H          -2.52730856647159   -0.00205548493630   -3.58624071668270
H          -1.34450721015536    0.32702770633579   -2.64595348083205
O          -1.95425131819401   -1.25201831956249   -0.25330658690191
H          -2.17271847737516    0.39846421487447   -0.05535739922293
H          -2.34306536036202   -1.22065493216348   -1.13874571127219
H          -0.98775771449727   -1.29234058488900   -0.40659926213009
N           1.52820808884023   -1.03212240292217    1.96873361075304
H           0.73088905218859   -0.57741656945650    2.41005500987410
H           1.74694951948653   -1.85979274258776    2.50889039862112
H           1.20738978035927   -1.32373829614231    1.04734283920681
