    26
        -50.44892214  Gyration_radius:  2.61042250261 Dipole_moment: 7.137
 S          -1.03397820692742    1.08310423378447   -0.25165356550638
O           0.07950314293303    1.75098625390217    0.34493171371908
O          -1.48869644295098   -0.10112651059228    0.43362159836981
O          -0.69197946093061    0.69609342359657   -1.71643509201328
O          -2.19691898468319    2.05038982869282   -0.44491339119427
H          -3.00174148597291    1.44079125668334   -0.67946044580955
H           0.14356099729323    0.12406071455838   -1.74010094878227
O           1.35229541384987   -0.83887256000620   -1.63823390111062
H           1.41840115961104   -1.41696698823301   -2.40079405806445
O           2.10495693285994    0.89065076439556    2.12824812658475
H           2.65489122797350    1.04159652892691    1.33821915409746
H           1.24662795900044    1.25572732537904    1.88015599390334
O           2.73820915417959    1.36829964033527   -0.50440552230958
H           2.51605112460533    0.55808285917333   -0.97929155451471
H           1.89416369620339    1.81723958378441   -0.36286258463172
O           1.89244459005180   -1.74810499017810    2.38680768585651
H           2.79594594439695   -2.06496709522446    2.42106164620180
H           1.94824169639543   -0.76206130929065    2.38946673568136
O           0.30764787292462   -2.13537494128052    0.28378106377667
H           0.87815128306983   -2.10072255022668    1.08725912574160
H          -0.42800073092798   -1.52648062849823    0.46839148332995
H           1.01847898575105   -1.41728034997193   -0.86597196579661
N          -3.93347748465079    0.24115340986908   -0.89298110686433
H          -4.85953271718174    0.28263455659359   -0.48903429276256
H          -3.35401185418319   -0.39470388780404   -0.35148041859641
H          -4.00123382266746   -0.09414857839763   -1.84432547932670
