    26
        -50.44892230  Gyration_radius:  2.60983494423 Dipole_moment: 7.140
 S          -0.84574477969356   -0.08281851565761   -1.26123115674167
O           0.45438682318792   -0.70411463243912   -1.30833519673848
O          -0.85621018448080    1.29713527768266   -0.89067866929690
O          -1.73807759541527   -0.89647267702259   -0.28436861293883
O          -1.56723189153259   -0.28555663611114   -2.58929179802811
H          -1.33205930582616   -1.25733298718626   -2.86227008784802
H          -1.42202217692146   -0.76473692355619    0.66882770720101
O          -0.77316434566901   -0.58334366230512    2.06346219643011
H          -0.99353595859555   -1.30118290023535    2.66031122825218
O          -1.36094760314357    2.17831833208983    1.73832682942734
H          -1.20017465265779    1.30133078021068    2.10786538714125
H          -1.51022524334504    2.03143899658149    0.79492316957860
O           2.88159235943110    1.32395297144835    1.51220589208810
H           2.25338173554915    1.95674802915395    1.08750024446458
H           3.07191447432236    1.68144130876376    2.38047796021756
O           0.99248523628408    2.91297425276952    0.52150498828149
H           0.26819373863024    2.90933223364075    1.17327181676338
H           0.59981579822384    2.49700418965116   -0.25598541101560
O           1.57137331903578   -0.96486143365760    1.15585730609811
H           1.35250744973812   -0.92885944868106    0.20890242717942
H           2.14594884087773   -0.17984711622980    1.31720990517665
H           0.20222572171403   -0.72107072696674    1.79489299276275
N          -0.69928985690011   -2.65168191881957   -2.96159450766096
H          -1.21589362593859   -3.39800507734326   -2.51641718791564
H           0.10181303627103   -2.40589518775712   -2.38619488822927
H          -0.38106129316598   -2.96389651797667   -3.86917253464902
