    26
        -50.45662073  Gyration_radius:  2.60086096582 Dipole_moment: 5.224
 S           0.31718558045419    0.34283559371987   -1.34379989478087
O           0.80914288851211    0.84241299184724   -0.06328868013603
O          -0.96335349233530    0.88307792089299   -1.70844379905549
O           0.17345124844379   -1.22606538900757   -1.17368387378739
O           1.33057416696863    0.45380929608637   -2.39764884601452
H           2.25222081394362   -0.52803830224853   -2.02997838716580
H          -0.12401005189721   -1.44796255823194   -0.25120109882003
O          -0.40670546961920   -1.86729776584294    1.28410546122471
H          -1.25714140800408   -2.29891386343221    1.37849332360561
O           2.33099464441524   -1.03904280750115    0.90041631671684
H           1.65310581046013   -1.62014422802358    1.26658943287647
H           1.84605719919719   -0.20448048182629    0.68560895217374
O          -2.57454078109403    2.63129389368235   -0.57741966154285
H          -1.90136854975402    2.03447653348538   -0.97301859058581
H          -3.26663411438839    2.69940472794976   -1.23754534469670
O          -3.13289492135554    1.36293971901161    1.70202520660552
H          -3.38015384661589    2.04800546983225    2.32527553668357
H          -2.96600737404554    1.82425822235667    0.84681364572419
O          -0.62502874062100    0.52087785183085    2.19491764272092
H          -1.55543051715841    0.80715533899122    2.06161270192070
H          -0.50074258089427   -0.96869589297573    1.74192999760237
H          -0.11579188319396    0.89847380175214    1.45543482292523
N           2.89583095806893   -1.35957245400357   -1.63205605657308
H           3.87047853084414   -1.22372143193707   -1.88037013833381
H           2.53981868720974   -2.23355629031966   -2.00672526856015
H           2.75094319244926   -1.33152988608786   -0.56804339072216
