    26
        -50.47676517  Gyration_radius:  2.44747612887 Dipole_moment: 3.271
 S          -1.30778544180088   -0.25090276101661    0.59378950312330
O          -1.53689129925665    0.47318613991509   -0.63963494375314
O          -0.26796269459723    0.37310811305971    1.40463167771812
O          -1.00167316056632   -1.66519908894620    0.35917795475989
O          -2.64177864835135   -0.18710341973549    1.40064751119124
H          -2.49826340057543   -0.82629719731073    2.12531041370319
H           0.30651217200091   -1.84016895504431   -0.56682466033122
O           1.13221148346657   -1.89036742088496   -1.11242016769161
H           1.26780638448648   -2.81956521916856   -1.30481833636885
O          -1.84215391347077   -2.31071742686138    2.76005940923799
H          -2.42527121992891   -3.07219711576004    2.72041462454045
H          -1.35821911805104   -2.28445621580361    1.91028477699962
O          -0.47259789905381    2.75616200410091    0.30482365296862
H          -0.34359787037961    2.05378548009289    0.97463342668590
H          -1.16633232103228    2.37326954357950   -0.25181480112959
O           0.27744452521696    0.27782757732779   -2.57893929087418
H          -0.52689865699332    0.35176562632261   -2.02341435567053
H           0.67068307341144   -0.57011236943302   -2.31241640018629
O           2.22844025346836    0.01584654046845    0.56109280719186
H           2.09304066349945   -0.76486005770161   -0.00037989678616
H           2.05550343893773    1.26384229901669   -0.41255792686494
H           1.38631169786189    0.11181304967545    1.05579598707033
N           1.63306645812341    1.96833211931354   -1.09188931372415
H           1.16087076477214    1.38554377522846   -1.84840429284918
H           2.31981991955644    2.61329341806264   -1.46403470186029
H           0.85771481927259    2.46417155149285   -0.56311265711169
