    26
        -50.45651700  Gyration_radius:  2.48724048182 Dipole_moment: 4.641
 S           1.51279393268164   -0.36614818702706    0.97998885939320
O           2.39706982584084    0.25599165438784    1.91740431305032
O           1.22616725559825    0.48866508522948   -0.18825696636163
O           0.14961299596774   -0.55989402566234    1.74226003061657
O           1.91620192472564   -1.69694733403458    0.51716459484745
H           1.77892120852427   -1.76535155549762   -0.97948760704883
H          -0.48754754784535   -1.04116321649105    1.17177071747999
O          -1.80627547523265   -1.45818956145928    0.17162541280516
H          -2.56972392869896   -1.43109059518128    0.75027565755462
O           0.61330001605501    2.16458638132230    2.46024475824869
H           1.32257561499839    1.55606747871416    2.17354085620106
H           0.35355522821606    1.84452418283196    3.32702697885144
O          -1.00004350824518   -1.55413533842023   -2.51624808318153
H          -1.36138086715129   -1.99330299906202   -1.73381718663213
H          -1.22893417305246   -0.62044884166737   -2.39807336776785
O          -1.64202814059035    2.54331957897957    1.02466221347734
H          -1.59856857470202    3.48249088512113    0.83829772464932
H          -0.82249870170692    2.34168414725656    1.53076899534446
O          -1.25460491761850    0.81462317728890   -0.96580485311194
H          -1.58485361673004    1.50256429369893   -0.34794461439981
H          -0.29902403879948    0.76685105845139   -0.72828490326334
H          -1.73233477422617   -0.55137018684009   -0.24614335340692
N           1.59411767038230   -1.32179316324211   -1.95143399061890
H           1.57530223938731   -0.32914993858882   -1.61872295591837
H           0.62794170604814   -1.55824620571138   -2.29913282378848
H           2.32025864612107   -1.51413674437126   -2.63168040701086
