    26
        -50.45514383  Gyration_radius:  2.42730285674 Dipole_moment: 4.701
 S           1.52764427556762   -0.22684821300194   -0.48781759667807
O           1.81314701118587   -1.30114965098717   -1.38190526445104
O           0.85151286930896   -0.62368717530754    0.73266961222932
O           0.63306150784555    0.82580745599244   -1.20183181926702
O           2.76250579824319    0.57249930519318   -0.14677835505050
H           2.48999837633348    1.13357635587314    0.70106637925743
H          -0.23018618957765    0.39488757788570   -1.50130884979228
O          -1.52025421351704   -0.37680344797809   -1.89669031990272
H          -1.76159526049747   -0.22183273658477   -2.81199297238814
O           1.88410190610047    1.73215327509275    1.87120827452804
H           1.54601267868524    0.95095770191437    2.32042377089929
H           1.06161377801955    2.22813279873394    1.53564931100802
O          -1.72482615469925    0.24994393535508    0.88446872107554
H          -2.01232622992817    0.08389634661723   -0.02053538977702
H          -0.81083234394949   -0.07694350339502    0.92966911031727
O          -0.79334614132141   -2.79442275472125    0.99081468001290
H          -0.06688247865322   -2.15329264624087    1.05324552406844
H          -1.57591136970157   -2.33397426443483    1.30679284189344
O          -0.49170232383735   -2.70702289071488   -1.68888438553625
H           0.44216245835741   -2.43575009855635   -1.70889112164277
H          -0.66336897911995   -2.98100298909601   -0.76350837311443
H          -1.20397196729757   -1.34210772804274   -1.84959498725567
N          -0.31128650582561    2.79402149219814    0.91460402639797
H          -0.69573647655598    3.66274925873769    1.26197852641637
H          -1.00807677345059    2.05812111806559    1.03631799094936
H          -0.14145725171017    2.88809146740572   -0.07916932419397
