    26
        -50.45651708  Gyration_radius:  2.48724963063 Dipole_moment: 4.654
 S           0.71857587907736    0.08455491087699   -1.69207813988134
O           1.20790226003056    0.44501264466427   -0.34730039340043
O           1.08275802443853    1.04421599103971   -2.68914236553118
O          -0.85342970614054    0.11566868583938   -1.62318239491299
O           1.08848897188075   -1.30303511286791   -1.98458049907334
H           1.72731716340946   -1.91478881739469   -0.76699749482132
H          -1.17484250546744   -0.56880745674904   -0.99772423752783
O          -1.84265963002901   -1.38035857933797    0.34726227315464
H          -2.77939810156814   -1.18112826389427    0.31206809367875
O          -1.50707624665095    2.66510366139907    0.91948857504661
H          -1.10843910386158    2.69804994827373    0.02035065495386
H          -1.22328317332395    3.47261616184342    1.35074104435333
O           0.19962187821473   -2.40318559706476    1.98230668156250
H          -0.57469143284525   -2.54832666007122    1.42119387429934
H           0.09079761958453   -1.50100912137675    2.31777951107872
O          -0.40569657033886    2.93251617960523   -1.53137771922326
H           0.24650165826668    2.29716281117858   -1.88694713113940
H          -1.12230201777235    2.92848186892972   -2.16995383847619
O          -0.43758756097759    0.34900180529827    1.68908279643126
H           0.23988263614541    0.43558887910679    0.97812712500412
H          -0.92356219291445    1.19875799040776    1.61293629936209
H          -1.42439900217463   -0.68403910537320    0.93231695987678
N           2.13762393056473   -1.86111788201370    0.23502753855783
H           1.46255758383766   -2.25189525357398    0.94353311569084
H           2.10605031363431   -0.81727328710709    0.31202677041028
H           3.06928933494081   -2.25176640161465    0.31504291055261
