    26
        -50.45508585  Gyration_radius:  2.52371371895 Dipole_moment: 3.600
 S          -1.10673697363123   -0.91523239639219    0.49643733622677
O          -0.37713880999195   -0.26259400654867    1.56154495668500
O          -0.18714315638698   -1.49362720862424   -0.50179781516544
O          -2.05631889270434   -0.02184270187706   -0.15681377732139
O          -1.89575429187051   -2.09942865752663    1.12224256765382
H          -2.36066055515218   -2.48377322004615    0.33415320599586
H          -1.13622734502953    1.23472792988623   -0.36051497437737
O          -0.56092278372056    2.03243754274053   -0.51934195231337
H          -1.15253087803726    2.72017078681953   -0.83141161537233
O           1.94643937454372    1.57019262619467   -1.41112220367455
H           0.98685152654290    1.71281354019143   -1.28610433527011
H           2.37004049684791    2.13670510404004   -0.75783719858499
O           2.18632685066458   -0.06331214847730    1.87556687323169
H           1.22853970231616   -0.28350028436151    1.97358061072835
H           2.17070889040074    0.91005598363085    1.77325338508935
O           1.42266352120998    2.48388188465224    1.34951223360267
H           1.08560586209376    2.78227959548919    2.19570027578233
H           0.63583319385533    2.27246291237760    0.81129560230207
O           2.19145812517640   -0.82201329091814   -0.50071760244552
H           2.16564789352367    0.07452953454414   -0.98306882710613
H           2.32249880616166   -0.57234191593570    0.52607779624680
H           1.19032167616568   -1.17944125466272   -0.53260851385187
N          -2.78280209726476   -2.53007351037991   -1.29575442933863
H          -1.88683738975345   -2.73969230328428   -1.71917609194114
H          -2.88328291795121   -1.51933507327004   -1.30609869371846
H          -3.51657983799943   -2.94404948827413   -1.85699680306020
