    26
        -50.45508585  Gyration_radius:  2.52375815071 Dipole_moment: 3.600
 S           0.07813597200751    1.26858176220682    0.83252463588316
O          -1.27427041655916    0.88637614922208    0.48956457532740
O           0.96230684049417    1.21277268279646   -0.34722415236709
O           0.63016453659966    0.45582475920099    1.91012543009985
O           0.04470214163654    2.75035779976914    1.30131726108527
H           0.99782227286378    2.92639575118435    1.51456505694553
H           0.22097045955397   -0.97145490685783    1.39751761929563
O          -0.00946053440229   -1.88593771203585    1.07640511077504
H           0.20626971544976   -2.47662735043525    1.80089961438361
O           0.37150567536601   -2.38857335636134   -1.55010071828625
H           0.43615226937307   -2.24282572355424   -0.58502963522079
H          -0.50324264956963   -2.76701348132513   -1.68718771548571
O          -2.22166044524387    0.20557719629674   -1.82316754382738
H          -2.02214059367032    0.66862934781794   -0.97392116619485
H          -2.42023405197995   -0.70574930953355   -1.52615019144274
O          -2.33441604725262   -2.09887101313910   -0.40010005239229
H          -3.12850477144543   -1.98469611051758    0.12437351443139
H          -1.58987305360375   -1.91242583125419    0.20353045534273
O           0.20297886530069    0.03770962442834   -2.38468340776196
H           0.57445665662240    0.58847462957022   -1.55415948222252
H           0.38110508992165   -0.93793793757757   -2.15345882882731
H          -0.85189807131867    0.14889302763857   -2.29148952798383
N           2.61554758336425    2.48570230094199    1.67545425577789
H           2.34020815683555    1.59366283965950    2.07577307532030
H           3.43017675972492    2.83385690538296    2.16535490676576
H           2.86319764992691    2.30929797647868    0.70926692057681
