    26
        -50.45508576  Gyration_radius:  2.52371647914 Dipole_moment: 3.601
 S           1.49440462917447   -0.26950400191361   -0.04930189695760
O           0.89879415351561   -0.08497371853452   -1.35464608240917
O           0.69598486587768   -1.19786441804480    0.77352760182885
O           1.68369668160874    0.99082391285154    0.65954544436221
O           2.88550946761380   -0.93196160577851   -0.25523031807009
H           3.21812527908885   -1.01918723446142    0.67576615434181
H           0.27474852325440    1.64147573700433    0.41810526831466
O          -0.62112353967268    2.05971814863543    0.29522601562945
H          -0.53508823181713    2.95703695749851    0.62342102794844
O          -1.24488370250450   -1.17386185721143   -2.31804173686970
H          -0.31297236681297   -0.89981458750235   -2.13921657076679
H          -1.71032757304017   -0.31486905740200   -2.37885494619719
O          -2.77000898076419    0.45334118678470    0.60699986669416
H          -1.99588573612360    1.04396191685128    0.69987221115516
H          -3.19212253778418    0.72274842281794   -0.21542570915833
O          -1.93477902592227    1.43403342544008   -2.05278031746914
H          -1.53869529627218    1.83668178150594   -2.82714833545152
H          -1.33901791790499    1.64859485998215   -1.30956937045216
O          -1.60367714592061   -1.77577532998816    0.07582571960187
H          -1.52425319199178   -1.64888577778840   -0.97858178860690
H          -0.61085352980995   -1.59701909255851    0.41205742693610
H          -2.13773131184299   -0.96891326481956    0.39344176474905
N           3.11087772999428   -0.80989891326701    2.34351980567775
H           2.72409175637705    0.11964954030976    2.20878425149703
H           3.75093622910890   -0.79432831744341    3.12766983536124
H           2.33425074253513   -1.42120871297174    2.56503465830341
