    26
        -50.45651718  Gyration_radius:  2.48754215045 Dipole_moment: 4.646
 S          -1.13072566195033   -0.12022713965734   -1.44790916922385
O          -1.32012127157430    0.44826762353649   -2.74740509530398
O          -0.89324220646661    0.89967750570654   -0.40785926448510
O           0.18417274773974   -0.97960859939783   -1.54505091638133
O          -2.18477758053520   -1.03307405568498   -0.99713976287707
H          -2.57047706963154   -0.68963970973092    0.41754086414104
H           0.34340951797195   -1.44583400033854   -0.69622925133683
O           0.97173034567431   -1.95281142164643    0.80670409012908
H           1.81463379099706   -2.35686904858555    0.59529597494572
O           1.17552950648596    1.39087906420023   -2.79024462974747
H           1.53438763184814    0.75364772882618   -3.41185858616723
H           0.22446716001453    1.17231425796998   -2.73241171381120
O           2.79527376306719    1.41768691498169   -0.63042304553173
H           2.17457682434291    1.35620422678225   -1.39166043211706
H           3.09707024979804    2.32737439866562   -0.62418137819993
O          -0.60554278742197   -0.96298308275315    2.90755483700903
H           0.02064405800799   -0.23966612740578    2.75680748104800
H          -0.23564874206480   -1.71019537521215    2.41721589831081
O           1.10451340965415    0.60402823022136    1.26165514114551
H           0.34834097212014    0.80675181636538    0.66260660086840
H           1.16003552650562   -0.99189423449967    1.01569213120141
H           1.87159389069246    0.92254909910279    0.73800477739739
N          -2.53037312258996   -0.06113522051527    1.29957647710622
H          -1.98628437209743    0.71651168158206    0.85643644424239
H          -1.92108092792528   -0.48995070646702    2.04454880850558
H          -3.44210565269216    0.21799619389549    1.64273370920898
