    26
        -50.44824561  Gyration_radius:  2.63899546715 Dipole_moment: 4.531
 S           1.72354140797991   -0.08025362244474   -0.12764846467999
O           1.60529865002723    0.79343602947707    0.99620481035766
O           0.94875429605330    0.28400072901371   -1.28593644078956
O           1.33202414196529   -1.52910255526785    0.28176092810701
O           3.18947694903064   -0.25907178692045   -0.51963009436207
H           3.14412022620008   -0.77263706751766   -1.41532122281591
H           0.43129293533020   -1.54488927334529    0.73733421851971
O          -0.91363465929070   -1.49061999428350    1.52271374548400
H          -0.95016709781033   -2.19318996475283    2.17472789450076
O          -1.44184334828095    1.59992237661195   -1.23032585024500
H          -2.03521926122204    0.83024322489910   -1.16763966263736
H          -0.54666128679460    1.23199543221838   -1.30665192865801
O          -2.96011921468150   -0.37296711932607   -0.06510379104656
H          -3.22659524195503    0.31766549573174    0.54973494565997
H          -2.29206922260642   -0.89725867150459    0.39923687585212
O          -2.09276941973792    2.32932883511026    1.22701152645580
H          -1.81737720251622    2.13775179993467    0.29265823830716
H          -1.98997081374617    3.27390814438092    1.34482266368526
O          -0.50563580643218    0.73812447427186    2.68045380638024
H          -1.13373045460297    1.36281187928136    2.25106543143143
H          -0.80141203580217   -0.61835910236823    2.04603966505289
H           0.35317907036488    0.91076027999832    2.25756265413365
N           2.64112759314405   -1.43677396239746   -2.71506210458889
H           2.45171061057030   -2.42687253098363   -2.63648783289206
H           3.12577349641045   -1.25991630789730   -3.58480429714432
H           1.76090568830007   -0.92803674193455   -2.70671570395920
