    26
        -50.45514392  Gyration_radius:  2.42745228935 Dipole_moment: 4.701
 S          -0.00349208735718   -1.46919892300457   -0.67869967449848
O           0.97225427724481   -0.39763122247690   -0.74114588735274
O          -0.74052066466859   -1.66910364161810   -1.88366837787050
O          -0.98184262416322   -1.14914624442585    0.48690320024669
O           0.66510285744277   -2.73713122521521   -0.20413293087488
H           1.37594668683739   -2.41420779562685    0.50204732005299
H          -1.51139310599540   -0.31650474496524    0.27051704561369
O          -2.24888184835563    0.97921902471253   -0.16918860560294
H          -3.19861252850769    0.90339951721935   -0.05822486629241
O           0.79252799486725    1.80159774662121   -2.35752713135353
H           0.85222755488195    2.47765880948086   -1.67671601104447
H           1.04760026999297    0.96962632800912   -1.92672213002080
O           0.32635343820819    1.75421655912620    0.80079818686419
H          -0.61745594847726    1.81659825765103    0.61496567694787
H           0.65122461586841    1.02398888384500    0.24815941751329
O           2.29379453037863   -1.70769067839173    1.36923891501705
H           1.71360839178387   -1.18964293777480    2.02529907758763
H           2.64562837701972   -1.04809245920160    0.76304948761938
O          -1.67994049319287    0.76197226010727   -2.65130140625976
H          -0.83973017784918    1.25356683037374   -2.76552402704268
H          -1.42955385238493   -0.17788014250084   -2.64202968700922
H          -2.08295599385148    0.97899919524518   -1.17240597256125
N           0.69446145004967   -0.26729671356208    2.86184148178254
H           0.62672907810172    0.61765096931648    2.35758459860633
H           0.88289584320621   -0.07002298206376    3.83581820376012
H          -0.20597602103544   -0.72494467080560    2.79106409617391
