    26
        -50.45514389  Gyration_radius:  2.42749426569 Dipole_moment: 4.702
 S          -0.11133709377075    0.32064202664402    1.58242907018140
O          -1.39065448260060    0.25481807928306    2.21021150426771
O          -0.04870498402413    1.20783154827719    0.43642934313137
O           0.31157249394593   -1.09745621405633    1.10487961550011
O           0.98394041820048    0.67548612125057    2.55941040365888
H           1.79743587219848    0.95964509122314    1.95442561888192
H          -0.36922720566556   -1.45541710028490    0.44996112952973
O          -1.47515736207116   -1.88729977295839   -0.55313951895123
H          -1.79445818252767   -2.77330014087995   -0.37127087287827
O           2.72059679104677    1.34833252332401    0.91058512484225
H           2.17141798630200    1.94883064629220    0.39673546266148
H           2.84134669911348    0.52486054532785    0.32521328624713
O           0.27349015775635   -0.09647347457620   -1.93439385170420
H           0.18796895791415    0.45289447341582   -1.13748036885953
H          -0.33352941463095   -0.83384404884244   -1.80399346327198
O          -2.15991481982847    1.83362326373043   -1.18580794144995
H          -1.77576821371146    1.56052879874306   -2.02358074893322
H          -1.42577360363630    1.84726255211169   -0.55045383952398
O          -3.21460287636898   -0.19460648327371    0.24729372134151
H          -2.80055082288781    0.01837793336190    1.10129431504139
H          -3.07756523653410    0.59807425367021   -0.31266590877526
H          -2.23465651691309   -1.25881387585087   -0.30373540082712
N           2.78570430896401   -0.76979526778440   -0.62885550676602
H           2.45578532495839   -1.52547306204811   -0.04116414306200
H           3.62225806519599   -1.07367127931220   -1.10938279666818
H           2.06038373960108   -0.58505715683958   -1.32294421361530
