    26
        -50.45514392  Gyration_radius:  2.42746040037 Dipole_moment: 4.701
 S          -0.51518020452317   -1.48653513769418   -0.37946494503538
O           0.77116303700034   -1.02317689535439    0.10508671269633
O          -0.52308129003000   -1.88361684045903   -1.74961322308111
O          -1.54271133832478   -0.34011042671901   -0.16032517933375
O          -1.03903833894825   -2.57197375553725    0.53011331627911
H          -0.73322644444962   -2.28084049917897    1.49449089923513
H          -1.30433731989754    0.44951765657297   -0.74359847168977
O          -0.82666421536480    1.59979243950038   -1.67350743987663
H          -1.54669414284263    1.95694301275550   -2.19699035168212
O           2.70981973507469    0.13300906069733   -1.43940262296144
H           2.18714687564002   -0.45561062665259   -0.87091736173929
H           2.80539742843207    0.95385287930638   -0.94833128823365
O           0.83137922000504    1.64499392911042    0.65500469881612
H           0.89450503838893    0.68555019681031    0.51463019550422
H           0.34011423722963    1.98339987806282   -0.10217363304842
O          -0.15015723027676   -1.68890310880190    2.67903268300968
H           0.75661008118623   -1.55243109184038    2.38673511483166
H          -0.55367355542936   -0.75765840109929    2.75192036840480
O           0.63510600550617    0.12602103907597   -3.16442015061709
H          -0.22687400432418    1.10042724527308   -2.32536333237235
H           1.52460457748557    0.14789945615053   -2.75336735222928
H           0.25370184842710   -0.73127150466324   -2.90809985943689
N          -1.10030174757010    0.75159580156860    2.63982837743624
H          -1.91872755610838    0.70022915058826    2.04588264065097
H          -0.38848889001146    1.27868465333604    2.13236780835562
H          -1.34039179625977    1.26021189919375    3.48048239611588
