    26
        -50.45209640  Gyration_radius:  2.57733553177 Dipole_moment: 6.615
 S           0.67057153593590    0.72445962260846    0.52737185123981
O           0.49378250683259    0.15497452578645    1.82478858064669
O          -0.54644697561352    1.18162110945815   -0.09865414092216
O           1.34014821866846   -0.30757870777108   -0.42746835811702
O           1.70471533400330    1.83479272756603    0.56918105665825
H           2.00299368503687    1.99488811949425   -0.40576765881024
H           0.82504358030870   -1.18097587906694   -0.38651896825629
O          -0.10732342860555   -2.39704206923251   -0.31347237076129
H          -0.22488840985473   -2.85972145693904   -1.14537695409104
O           0.36340156885357   -2.55408075170032    2.50560704044159
H           0.67239350787582   -1.63926937118545    2.44853947391560
H           0.29173436727843   -2.85581820297900    1.59310237747032
O          -1.91481241198559   -1.06220736316827    2.84081103979445
H          -1.33590031065848   -0.29315714464991    2.88391380011456
H          -1.30625964569077   -1.81982036923739    2.92650313436724
O           2.29028400560500    1.99220179937626   -1.87105729920465
H           1.39807784359297    2.22197780526217   -2.27516810596631
H           2.44191637629472    1.05921018806682   -2.04610410453961
O          -2.15989434932579   -0.97923832914316    0.19909769661798
H          -2.26872357280167   -1.05153286920712    1.18004638108601
H          -1.77577702788921   -0.09895755277343    0.05213640281146
H          -0.98977143441676   -1.92383733437348   -0.11664282393141
N          -0.19452262829390    2.43924989846546   -2.63284545634236
H          -0.47158644964857    3.41203156336877   -2.66824091983059
H          -0.55241752165911    2.04646450226849   -1.76176286707815
H          -0.64673836400068    1.96136552940297   -3.40201880707914
