    26
        -50.46455204  Gyration_radius:  2.42093935707 Dipole_moment: 4.944
 S           0.20988032193527    1.28512723932960   -0.24043844546355
O           1.00580128487473    1.19018849648220    0.97853858888928
O          -1.21298246111174    1.40889711103851    0.03326315832837
O           0.45989241035553    0.12499247825715   -1.10749293431564
O           0.70024260142448    2.54363010675230   -0.99349605917699
H           0.05849687104018    2.60225329107410   -1.75725109379072
H          -0.29533368685828   -1.23596722160765   -0.69642378562150
O          -0.71650317823018   -2.07299940302734   -0.36706964591090
H          -0.86086106900845   -2.62144298731133   -1.13933913904600
O           0.24431809325892   -0.46680941385126    2.70985648768172
H           0.60196465123560    0.29750831208858    2.12397215253346
H           0.72340842024171   -1.33564990688871    2.30369723521181
O           2.73935923343834   -0.76072692211113   -0.02946716632280
H           2.95233760154825    0.00073663234913    0.51767752055669
H           1.98586274710492   -0.46125245915488   -0.57655760465722
O           1.27437654652350   -2.36989702630657    1.46762927395405
H           0.55310603179870   -2.52581291121276    0.82848618881277
H           1.97418581547689   -1.89769141960502    0.94653580581080
O          -1.98861389123146   -0.57729196810544    1.56139113855156
H          -0.75325465802698   -0.54182467036133    2.40013544338038
H          -1.86380648663769    0.24816675507283    1.03492020568454
H          -1.82911659805812   -1.29804121169564    0.93039405023421
N          -1.26533714014757    2.23301868952033   -2.66842800870773
H          -1.09369406304862    1.44463921997865   -3.27823492144637
H          -1.86568288052864    2.89093923916131   -3.14821517596043
H          -1.73804649736185    1.89530995015557   -1.83408325918364
