    26
        -50.45209624  Gyration_radius:  2.57757078076 Dipole_moment: 6.609
 S          -1.10619841038919    0.14373370604219   -0.09172062305828
O          -0.52123184791664   -1.16261840629280   -0.27441944901925
O          -1.03984602386092    0.99077813672575   -1.23927375399582
O          -0.39683356985957    0.81946033185722    1.11867960069164
O          -2.53660396007147    0.02845475395218    0.40312840271232
H          -2.48456396204591   -0.33322247861216    1.36821887673192
H           0.52986207544776    1.12060572069079    0.83518086635310
O           1.93897080032934    1.41848814494141    0.30694134130022
H           2.63996953600491    1.29632819531959    0.95009245741629
O           0.79247945144970    3.03762999082795   -1.75655378909932
H          -0.03957884579566    2.57833174611886   -1.57642053117869
H           1.37700683112289    2.80039287419660   -1.02795677380224
O          -2.13271868224003   -0.80689112731243    2.74012569444450
H          -1.47046233824049   -0.16545244974094    3.01231882457041
H          -1.64582865729530   -1.66934037440127    2.56349386130277
O           0.89222840101212    0.82350283425907   -3.37422245200838
H           1.06826487074075    1.73373398275055   -3.07074258365801
H          -0.02451458319768    0.66761907492517   -3.12204013054077
O           1.89868000838152   -0.53421365035878   -1.32764305622693
H           2.03057056186852    0.66081757981408   -0.37042526311494
H           1.07970805309665   -0.96363980229875   -1.02958469213699
H           1.67066767370393   -0.12094744752137   -2.19740119149813
N          -0.76212165213333   -2.91967219854161    1.95749042948508
H          -0.57061170782734   -2.48361918265006    1.05507568889897
H          -1.30795784059447   -3.75450474088250    1.78598748542175
H           0.12066383849702   -3.20575520373205    2.36167075999055
