    26
        -50.46455204  Gyration_radius:  2.42101838558 Dipole_moment: 4.946
 S           1.31361176163504   -0.13327923763755   -0.09281740707825
O           1.13500050080493   -1.09356418560592    0.98449790841609
O           1.29844732216387    1.24611051393478    0.38210815183273
O           0.28553328280311   -0.33183289887794   -1.12423771755580
O           2.69095520423263   -0.35763504820508   -0.75903755952341
H           2.67212422115257   -1.33402157930255   -0.97135076117980
H          -1.22186456523140   -0.51181420799241   -0.58841193743284
O          -2.14531574509114   -0.54191622747951   -0.22402047987222
H          -2.65961609608521   -1.06355261205275   -0.84160598206837
O          -0.58615038833377    1.90278408423698    1.91175085851047
H          -1.31445287014852    2.13139424162901    1.15898566168558
H           0.27050534016877    1.73475256510684    1.37018842750673
O          -0.20054374354283    2.21502404554943   -1.77209847310594
H           0.55048891713672    2.62674796230526   -1.33509079500057
H          -0.02091950677752    1.25571613626100   -1.70739125744825
O          -2.16209887143264    2.17290999260574   -0.00379013544710
H          -1.52758840935148    2.34641484481263   -0.74649021146288
H          -2.41569303815510    1.23611346297840   -0.10894821998415
O          -1.06130366185394   -0.53372974612392    2.30542135465656
H          -0.83675007251844    0.94165745186021    2.24356098073666
H          -1.69310808874362   -0.70993809426650    1.58926681258755
H          -0.19473979896270   -0.85477146870553    1.95891077183087
N           2.11048151338615   -2.88419922550388   -0.97011744663040
H           2.66783746464643   -3.72341641868382   -0.87831159734649
H           1.41449122060896   -3.03277357915967   -1.68868710830760
H           1.63066811753846   -2.70318079166901   -0.09228385831579
