    26
        -50.46192236  Gyration_radius:  2.42597823528 Dipole_moment: 4.593
 S           0.53532088160796   -1.23135771079855   -0.37465688251111
O           0.36480596945389   -0.00043496739433   -1.17075628338114
O          -0.74397483317454   -1.75136452661245    0.04386062250229
O           1.43018401046498   -0.96136606078708    0.74928781167044
O           1.20792190276978   -2.27856369111043   -1.29896830696475
H           2.07460871371890   -1.84061312234177   -1.50780619933826
H           0.69534911953708   -0.19763199460543    1.92839004869956
O           0.20649076330687    0.36842430827772    2.58748847690384
H           0.67300813696242    0.27054144257974    3.41879353365600
O          -0.13604691558950    2.02315543309605    0.43004229797547
H           0.09077639467029    1.67691058407344    1.30992202949955
H           0.17765995917041    1.33753248964233   -0.20884290959402
O          -2.06760930427546    0.31613256560474   -2.03788991614967
H          -1.14855265332602    0.06159331295966   -1.76638408043211
H          -1.97650960949461    0.86593557680940   -2.81853541028047
O          -2.57028075832450    1.42271885723445    0.20091582685571
H          -1.61291725346874    1.82801945667407    0.31265307774537
H          -2.53567660643524    0.98624732656340   -0.72349628007485
O          -2.23526774999094   -0.48708518142101    1.75463015467223
H          -2.55850383342912    0.60102665974020    0.90129612776393
H          -1.80696568798254   -1.11677095108151    1.12178795747029
H          -1.49193823349976   -0.17270006719666    2.30420173451136
N           3.25337627687911   -0.65352734473053   -1.38666861429940
H           3.00208070017509   -0.53454912801565   -0.40907520848902
H           2.91137490972828    0.15504316301284   -1.88989433004302
H           4.26128569053211   -0.68731643016445   -1.47029528836423
