    26
        -50.46658031  Gyration_radius:  2.40008325258 Dipole_moment: 4.035
 S           0.63584875097051    0.39899180825590   -1.09689457449967
O           0.72618009405460    1.04027142552758    0.22546104673523
O          -0.72625176241498    0.45328550903156   -1.59556790749466
O           1.15618628009972   -0.96114927522797   -1.02940194392616
O           1.51523282114475    1.22356324449052   -2.07053706438590
H           2.41584845174582    1.13669248573364   -1.65752135288727
H           0.23333212950426   -1.97274373145789   -0.22586641193200
O          -0.37091417837137   -2.52697072096618    0.33995667145014
H          -0.08322257856614   -3.43426224248735    0.22887795742792
O          -0.30223295564789   -0.45837687667189    2.12982168519125
H           0.21287231328377    0.11932999674238    1.51822313581167
H          -0.28397787833655   -1.34236584251195    1.72332520992823
O          -2.55247119325881    0.42657899064124    1.43724604589667
H          -2.25317714625674    1.31272499030858    0.98348424805028
H          -1.67708444036376    0.06846128178900    1.88740267029306
O          -1.53229073383294    2.35950907393369    0.15891626769087
H          -1.70923937406722    2.12999363237908   -0.76273545870717
H          -0.60232191565620    2.05727419445097    0.28478434893923
O          -2.52864380218993   -1.12345716492144   -0.52898909176099
H          -1.94399214061638   -1.84477209735536   -0.23072434175953
H          -2.69524713137847   -0.24501832912842    0.63140930125356
H          -1.95016074521115   -0.56457986645100   -1.10015371235470
N           3.50831473226590    0.57529435825998   -0.52662374286996
H           4.51440937918523    0.46598025797006   -0.51979749803428
H           3.07030296657642   -0.34059739008048   -0.52688815891307
H           3.22270007734252    1.04634227774719    0.32279268086367
