    26
        -50.45408634  Gyration_radius:  2.49830019418 Dipole_moment: 1.872
 S           0.46964535887165    1.46646118896411    0.69702709843619
O           1.03133078656509    0.25818763016373    1.26679000751973
O          -0.39010403579876    2.19776230597412    1.57827002311587
O          -0.31511755523247    1.07557999611583   -0.57985688440296
O           1.57469284871584    2.34436374638777    0.15631981982081
H           2.29004503191828    1.65510835455294   -0.21692621517819
H          -1.10552996910565    0.46216794397628   -0.34384540598779
O          -2.20551847385196   -0.43867429787337    0.16850610474231
H          -2.63514130611395    0.13537070975017    0.84181633750597
O           3.03832405191910    0.49413846598456   -0.58881371469702
H           2.52855023137220    0.13560826018319   -1.39669076843913
H           2.76045017172400   -0.05281459892806    0.15637860954834
O          -0.33726761035029   -2.27503569832626   -1.35009797571444
H          -0.18652289450208   -2.42319218979214   -0.40816332274513
H          -1.19192090586562   -1.83929819296773   -1.40947051284969
O          -2.83657215661671    1.27731468269293    2.09348568237404
H          -3.44671588248373    2.01367680940418    2.02389086971262
H          -1.93835441957861    1.66438436494655    2.04613503566719
O          -0.37841161045113   -1.94277596023935    1.47190884632206
H          -1.71441697984322   -1.11027792344515    0.68376768040041
H           0.21593986433617   -1.15793624470762    1.44511229191819
H          -0.40178789560739   -2.23386122842002    2.38483879473831
N           1.50179513157309   -0.35942377224855   -2.51527777074429
H           0.84670190514359    0.40756610538078   -2.61092427679351
H           0.97117890304901   -1.15675161052498   -2.16102405723791
H           1.85472739020526   -0.59764886692012   -3.43315629704342
