    26
        -50.45408647  Gyration_radius:  2.49822293994 Dipole_moment: 1.868
 S          -1.27879649568133    0.56689905343074   -0.94769761774687
O          -0.47151669832740   -0.50008914533556   -1.50415713824231
O          -1.20302005105487    1.80663712112000   -1.66047473838249
O          -0.83473860705473    0.78982772196515    0.51942909138373
O          -2.71073297907205    0.10713746342689   -0.79888251619298
H          -2.62502367756275   -0.91951273657838   -0.54387065035283
H           0.14259254343470    1.10654717373124    0.55678984868432
O           1.58337527675057    1.54601259216216    0.43747640708242
H           1.50563936278016    2.31957726485085   -0.16514365195502
O           1.71157948872727   -1.23559377686816    1.62980429781139
H           1.96873138273580   -1.30598406972523    0.70199827024432
H           1.80496188743696   -0.30565165268384    1.85404274624216
O           0.97836367059470    3.32042790062698   -1.44195205711965
H           0.69327691349378    4.22495423569298   -1.30113822401273
H           0.17054794018618    2.81337598174998   -1.66389909077042
O          -2.17489442357686   -2.24421086911579   -0.24716302848841
H          -1.40965895516874   -2.22859630377864   -0.83529494773613
H          -1.79678768675291   -2.15723922753129    0.69653992065391
O           2.11868297667776   -0.60313795978846   -1.11023522320687
H           1.98216786218435    0.83819915269319   -0.10806802402932
H           1.15656455375163   -0.63344823621242   -1.31827868248961
H           2.57836896298720   -0.62181694904466   -1.95110821869786
N          -1.10091716608840   -1.77659141033784    2.08264698484665
H          -0.08709522964218   -1.75990465052501    1.96129344647817
H          -1.31168391889411   -2.32731534416264    2.90479854530041
H          -1.38998693287189   -0.82050335973761    2.25254425068927
