    26
        -50.46194305  Gyration_radius:  2.45221386537 Dipole_moment: 2.245
 S           1.89248100317758   -0.38998183189505    0.92120525863370
O           1.91507421148336   -0.62629690614836   -0.51889981968891
O           1.49080918574210   -1.56557719181115    1.65626949068860
O           1.09281071819092    0.78117517408798    1.26043813581779
O           3.36768220427481   -0.00714057271801    1.33805628079102
H           3.21650479199005    0.74701282672360    1.89791418692312
H          -0.46255264422903    0.62397674192148    1.21823000702759
O          -1.45878481262665    0.53491850969943    1.18173211793533
H          -1.76994401336078    0.76972878168361    2.05815078739197
O          -1.02827286128368    3.09958424138016   -0.06802937489470
H          -1.29247153846837    2.30066173165472    0.40966915308255
H          -1.64149792759520    3.20621908306093   -0.79821202674288
O          -1.00050909990486   -2.24303326263974    1.16296811543685
H          -0.08510252077581   -2.13559650407440    1.50654117585479
H          -1.40416718671301   -1.36481198331405    1.25311031426613
O           0.68418386350959    1.53156896586750   -1.62965296000163
H           1.25483465712737    0.86231277508952   -1.21392581519887
H           0.48373392018048    2.19615734612695   -0.95151020103428
O          -1.59155614123443    0.22487240425590   -1.67282054288018
H          -0.83685384392510   -1.16713251927898   -1.64290745156853
H          -1.83509328972352    0.34761405248074   -0.74614800542858
H          -0.78575956944374    0.79415617623600   -1.80709203651518
N          -0.20756345489759   -1.96815361076079   -1.31973476380957
H          -0.59478498934366   -2.29833102801363   -0.38567553907068
H           0.73195803210788   -1.54157727712314   -1.10612321309982
H          -0.13515872425867   -2.71232613249042   -2.00355328391573
