    26
        -50.46194225  Gyration_radius:  2.45220698953 Dipole_moment: 2.232
 S           0.97985458455574   -1.70360092712367    0.84970647403756
O           1.57496867903374   -0.44365459085534    1.28473013901423
O           1.57561429570481   -2.18944819575745   -0.37186142786175
O          -0.47277839323779   -1.60896069258664    0.76484303998036
O           1.24960363897321   -2.75168115460955    2.00094700545236
H           0.38898820233123   -3.14368995946500    2.10463656361555
H          -1.06967027943270   -0.85226841192343   -0.46690883703052
O          -1.45955075455246   -0.35885424030514   -1.24554435603682
H          -2.03935549461831   -0.98573043924677   -1.68253632056441
O          -0.51833749370672    1.15614472376476    1.96540529850303
H          -1.35271671795524    0.66251159777698    1.92100936358599
H           0.20187983587195    0.50944274834349    1.86762615579783
O          -3.06562215824381    0.59869581876936    0.95151538747423
H          -2.65135975078206    0.28223098910084    0.13632597444863
H          -3.25238950646654    1.53167321030331    0.82810143430939
O           1.08941744495589   -0.60926172851744   -2.41545815642542
H           0.13771732461581   -0.48402702779934   -2.27084307882934
H           1.34310810000617   -1.33682380570867   -1.80411575919338
O          -0.49593273361813    2.22450548703768   -0.43178107929721
H           1.02109970671613    1.81913887952488   -0.63933409831154
H          -0.96367800046759    1.51943909667074   -0.89781349110442
H          -0.55297007059860    1.98098525800329    0.53196520411545
N           1.90431039137824    1.22431553405248   -0.72935432002207
H           1.93623807269404    0.60691674931202    0.12403455509213
H           2.74599228802381    1.78081094156929   -0.82160277739366
H           1.74556876881709    0.57119012967010   -1.55369290335531
