    26
        -50.46224230  Gyration_radius:  2.4566314854 Dipole_moment: 2.936
 S           1.68866685807199   -0.49146625016800   -1.19906381234343
O           2.00904480293817    0.51993818248764   -0.20126272791776
O           1.22447323095925    0.07052197968501   -2.45091426533954
O           0.76573278962026   -1.48435283241813   -0.67243133728819
O           3.04639831229491   -1.23493375305843   -1.51267749416578
H           2.85383715423078   -1.65637820112075   -2.34340468016717
H          -0.74324754576682   -1.14072043986785   -0.50510204585682
O          -1.71121776941550   -0.90919593584525   -0.39243032068873
H          -2.19361940118746   -1.56970779323839   -0.89343228172975
O          -1.09440527886325    1.25598259930876   -2.07402301775039
H          -0.26785510145435    0.83835567143961   -2.40645408850402
H          -1.55026522823449    0.55443446638196   -1.58085748869194
O          -1.15873333470548   -2.31973189394659    2.07199394050864
H          -1.58556334764170   -1.85408271159832    2.79420738208186
H          -1.46742046293510   -1.91253464620682    1.25077876894542
O           0.93373385099791   -0.44839491333839    2.11938778902359
H           1.44460528861994   -0.23497867519505    1.32077638367998
H           0.58846804230865   -1.34707079307829    2.00146488483028
O          -1.23885409075563    0.96749188177837    1.72070062881914
H          -1.67232174681862    0.38241151487680    1.08558809696278
H          -0.44254111843972    0.46060164054692    2.03884630123160
H          -0.46128066694375    1.96909904883098    0.78184050419240
N           0.12142365954547    2.35210797727345   -0.02979377870365
H           0.99103339440992    1.76082728097711   -0.07682894153564
H           0.34014473041605    3.33612521782920    0.07247392081885
H          -0.42023700124954    2.13565138766633   -0.91938233041240
