    26
        -50.44824566  Gyration_radius:  2.63855566171 Dipole_moment: 4.531
 S          -0.27346043802034   -1.67265504158485   -0.35935400924024
O          -0.15371349067275   -0.72714315053233   -1.43920473050134
O          -1.35488012141508   -1.44573360298159    0.54580357678123
O           1.07453427620341   -1.69482398584401    0.41706368459903
O          -0.32744143217848   -3.09380395553625   -0.91779841073523
H           0.39518884251146   -3.09568449138968   -1.65643551669469
H           1.17468452625048   -0.86943394467254    0.98954627243964
O           1.22195738771567    0.37372041687865    1.92854058128262
H           1.72995069324902    0.17977466303721    2.71872864582583
O           1.01804659124370    2.76913591203475    0.45421037023812
H           1.24640118559263    1.95118599964564    0.91876646325167
H           0.27354054363081    3.14533317123651    0.93385276285337
O          -2.04935570362390    2.48292106672913    0.97224793254762
H          -2.99234464287391    2.60409833102637    0.85943076585324
H          -1.69233642392292    2.25666072353802    0.07390274702360
O          -0.88365871492515    1.90082438891697   -1.32898213309639
H          -0.04381645414983    2.27621889679214   -1.00898373253032
H          -0.71390850009085    0.95292256678252   -1.45210963912970
O          -1.25868452321227    0.42645649087867    2.49106570968090
H          -1.50453393036740   -0.32114861483675    1.91938235720538
H           0.24373071395078    0.43382292211224    2.22329340165986
H          -1.60329075582929    1.22595605924776    2.03136995657096
N           1.46423732576676   -2.65493376190613   -2.67998784733005
H           1.41744359809745   -2.99789484337870   -3.63016630697079
H           2.41700238463550   -2.72511678180533   -2.34883024744221
H           1.17470703248736   -1.68065944434456   -2.65535265413225
