    26
        -50.45875092  Gyration_radius:  2.52102334064 Dipole_moment: 10.929
 S          -0.11950445677354   -0.00407805940789   -1.10331001692032
O           0.21456464256725    1.38823951197243   -1.19825773410874
O          -1.34357094837425   -0.24939463206219   -0.34186026572670
O           1.02737131509295   -0.75688642295521   -0.32157848736224
O          -0.14736557571963   -0.70576632832549   -2.39029695854773
H           0.04613223269549   -2.03358635257653   -2.04634013631672
H           1.15933807090683   -0.27552642693141    0.54555413619334
O           1.22282368530671    0.46719642574297    1.94342490772584
H           1.27344185323280   -0.11798650647123    2.70094984877581
O           2.10753658558856    2.68975322915680    0.37508633509501
H           2.10253626096864    2.04188756238728    1.08829163699318
H           1.63421616358339    2.26446534603611   -0.35565253380302
O          -1.73898966536529   -2.74683015150697    0.17143986926778
H          -1.62477790734405   -1.76215482594029    0.07200262247016
H          -2.67364470006226   -2.91187552595100    0.03438639992139
O          -0.53939381159726    3.57796847911991    0.35770742413831
H           0.40396244720275    3.68182524412390    0.56387184602840
H          -0.53854955714535    3.02765088536786   -0.43787524986493
O          -1.15187707889602    1.39993417667888    1.77861308336950
H          -1.41900552138949    0.83359750762088    1.03222207528713
H           0.29631699655325    0.88519408572801    1.97185434225326
H          -1.04953161753442    2.30190909986059    1.39202623338089
N           0.19237167672630   -3.05368191999356   -1.58612894436456
H           1.07658973909643   -3.00762462504900   -1.08551719136372
H           0.18878319060638   -3.79996660267230   -2.27361090864062
H          -0.59977402996616   -3.13426321380039   -0.88700230389731
