    26
        -50.45082228  Gyration_radius:  2.58266510659 Dipole_moment: 7.356
 S          -0.85064673984348    0.61144919420679   -0.35255544353069
O          -0.05426747393363    1.71146924634009   -0.79325744765994
O          -0.96259140726776    0.45509867623842    1.07672710206847
O          -0.26263585140709   -0.71284373328577   -0.93178866365736
O          -2.23198755013762    0.65234192366981   -0.98316973827436
H          -2.83910962315604    0.09460223489098   -0.35232842018165
H           0.72867842150568   -0.76091903217950   -0.70562510161948
O           2.17214876856600   -0.76212337815701   -0.20493500821471
H           2.50639183094338   -1.61971731454514    0.06502485182869
O          -3.36255607645262   -0.76531400010287    0.73736570405031
H          -2.71327171383759   -0.45837010402168    1.38580211428708
H          -3.05775366734170   -1.66531112349880    0.44167643112698
O           2.02108303040393    2.99915733302232    0.71290235345433
H           1.12308313497987    3.05529279476729    0.36741703583140
H           2.55306768231782    2.72807919764252   -0.05784329373700
O           2.62443673629304    1.68529296993614   -1.62403635492813
H           1.66285072485707    1.78376367272282   -1.64831198245779
H           2.78035976052704    0.78187783577254   -1.32712440960535
O           1.63756000663336    0.63278721446329    1.85260431888761
H           1.88089334408801    1.55805002289616    1.59948366732297
H           0.66756041437231    0.60328150058372    1.81144598050630
H           2.06027765560565   -0.21384403868851    0.65108648843410
N          -2.18430127889305   -2.94016141581741   -0.28525010062757
H          -1.42852047309832   -2.40017268657794   -0.69636300572404
H          -2.69111220028846   -3.39153813269702   -1.03598164590691
H          -1.77963742545499   -3.66222886757985    0.29703456828986
