    26
        -50.46906648  Gyration_radius:  2.46841698567 Dipole_moment: 4.287
 S           1.87123416357085   -1.04901676751356    0.32903540517726
O           1.49098946610172   -0.19365896339517    1.42898452472288
O           1.43533032195920   -0.49070012366261   -0.95431136064182
O           1.50238333616912   -2.43691356887584    0.48220315531208
O           3.46013065611511   -1.03282178701198    0.28077030077265
H           3.63969452563495   -1.89545603987731   -0.07793053894161
H          -0.07165089102064   -2.18039402325788    0.78114524766251
O          -1.03371417494887   -2.00478810606335    0.89490681869840
H          -1.34885750975633   -2.64330359716178    1.53738087836950
O           0.25855186935263    2.06761854256496    1.62059197290601
H           0.74524295008865    1.20351742605365    1.59778384658139
H           0.52731987563426    2.50358071356784    2.43005180713893
O          -2.09168571329913    1.00385254492404   -1.55166144496078
H          -1.83790881347774    0.09332851092008   -1.83788135488388
H          -0.75286628114765    1.59574643295179   -1.36703580980298
O          -0.99183922629720   -1.39865462106011   -1.83048222744337
H          -0.05775498651450   -1.17410347704991   -1.68063875333339
H          -1.27349377489527   -1.81531724584054   -1.00403215298826
O          -2.08750766630860    0.56530869521479    1.07259665693628
H          -2.34160215609085    0.89692953733236   -0.60387190053721
H          -1.73614161919508   -0.34079102703593    1.08236640726733
H          -1.37619948470872    1.13060259840140    1.40475583320251
N           0.28071462361694    1.86886397454873   -1.09108920356428
H           0.82343642718997    0.96168886847747   -1.07104056303251
H           0.27456035754903    2.23992020368542   -0.12796924188518
H           0.69163373467901    2.52496129916748   -1.74462832272862
