    26
        -50.46122197  Gyration_radius:  2.40336118591 Dipole_moment: 8.891
 S           1.01429303367145    0.89357514045060   -1.11022871017961
O           0.46350340221449    1.58295664971190    0.05312582607805
O           0.28864874473775    1.15357632634744   -2.32155616370878
O           0.88377525494656   -0.66438481337013   -0.78817120582433
O           2.46432047855615    1.05931051430120   -1.18909602179777
H           2.89112894000251    0.26485374823507   -0.08467245843375
H          -0.03938716121040   -0.96761344569054   -0.96003227678633
O          -1.57850766785671   -1.52699049401408   -1.15253771823808
H          -1.64105808908311   -2.13994624656151   -1.88607473774102
O           0.92311357566720    0.10212202631920    2.12906728100794
H           0.16053112561604   -0.49471889052553    2.08235985799682
H           0.71392763893296    0.80459881814210    1.46493912545749
O          -1.51906455691016   -1.17272815150381    1.56684054494134
H          -2.19977516822943   -1.68848389611691    2.00142815987085
H          -1.55462274866403   -1.39865618439971    0.62078390306385
O          -2.14510255047687    1.51838226111490    0.66227242878420
H          -1.21836370181209    1.76178965006654    0.48189742511393
H          -2.08862542439570    0.70026774801309    1.17300374712544
O          -2.32825719868689    0.77544180343550   -1.90993874161407
H          -1.97918767160983   -0.64482907083596   -1.48541235772215
H          -2.46444732982364    1.20176554916959   -1.03508973551104
H          -1.44221245290322    1.06725310235829   -2.20767607555382
N           3.08842766537114   -0.40234138819788    0.78061265787871
H           3.14476828803560   -1.35440491743417    0.43239127388041
H           2.22149270159636   -0.29503021913832    1.41835172824942
H           3.94068089230529   -0.13576562987047    1.26341224366689
