    26
        -50.45875065  Gyration_radius:  2.52050011157 Dipole_moment: 10.934
 S           1.09353213841832    0.17272105794068   -0.09321212888263
O           0.69155236067811   -0.69461009087727    1.01333950358082
O           0.95389998644642    1.56894269116156    0.20745281658455
O           0.13510405921411   -0.19428564875061   -1.29320394918117
O           2.41382492165290   -0.20305659861067   -0.60811833431543
H           2.17582290879613   -1.37815994449766   -1.30140241872707
H          -0.78411196838144    0.11057158731054   -1.04162246393663
O          -2.22479477916381    0.51277338156046   -0.52023263952854
H          -2.90349366576598   -0.14366824086134   -0.68533828083358
O          -0.59135631613545    2.90165583311553    2.11005441460149
H           0.23311520133723    2.57260083525161    1.72553463864719
H          -1.03554030518211    3.33250887515304    1.36156672146471
O           0.55663885137955   -3.18464491279031    0.35056074278072
H           0.52175458562943   -2.24054528216232    0.66660778835190
H           0.93185651315602   -3.68513191286784    1.07751090945073
O          -1.17147079047024    3.17129505921119   -0.60780537390352
H          -0.30487772769449    2.74941998726632   -0.50770814527383
H          -1.78771085825941    2.44622859615346   -0.75931452686319
O          -1.57341572380697    0.42225264068144    1.95038572754990
H          -1.32352226835785    1.34714591916132    2.18614566040271
H          -2.06565247345489    0.50674851324186    0.48408575673105
H          -0.72777785762823   -0.03851019720162    1.80311165451268
N           1.80467766328157   -2.32194488749083   -1.79701868132438
H           2.54685607250511   -2.84971803280978   -2.24443724291026
H           1.09858897414610   -2.02462060942902   -2.46599960949299
H           1.33650050765708   -2.85596862888109   -1.01094256947899
