    26
        -50.47037213  Gyration_radius:  2.48228899954 Dipole_moment: 2.683
 S           0.35072474311634   -1.18904821845566    0.69908308781618
O          -1.05020407342089   -1.30713716297890    0.34231613956768
O           0.63157980935306    0.10784523670609    1.31546789852547
O           1.25372166580100   -1.45417622642959   -0.41512129988381
O           0.60965878430105   -2.27909753995292    1.78979845625249
H           1.58481646735084   -2.31800188559951    1.86005201888553
H           1.03228658482649   -0.45590873806865   -1.71167884730256
O           0.86746730194960    0.19234895550432   -2.43417182694393
H           1.42394253334746   -0.07046832119490   -3.16881121825454
O          -1.94980819755876    2.35231279645474   -0.41435549419431
H          -1.99063256161728    1.57638362127039    0.81577955023352
H          -2.09382071638424    1.63168586115973   -1.07590252448359
O          -1.84793784140564    0.12323235633878   -1.84544677741671
H          -1.00014448209184    0.20970832003545   -2.30741827858631
H          -1.67745199222501   -0.52185891261629   -1.13787970542480
O           3.18536057461938   -2.19930405371547    1.21201873209994
H           3.59334189661155   -3.01664151684230    0.91681849129802
H           2.70328553742315   -1.83369181876418    0.44458941860285
O           0.69530645584804    2.17099673968458   -0.47653182232269
H           0.85638964123532    1.69326451484576   -1.30368601598230
H          -0.97929407294728    2.53151183480179   -0.47329034450232
H           0.83403021679117    1.51288985847134    0.22630784004778
N          -1.83742656467682    0.83554610407663    1.63490607807155
H          -0.79830673087084    0.76068876154410    1.77191741941921
H          -2.05190185281531   -0.09890613435857    1.24875024086699
H          -2.34498314655801    1.04582556811123    2.48648877357391
