    26
        -50.45875096  Gyration_radius:  2.52048754932 Dipole_moment: 10.928
 S           0.05539659160327   -0.21354161412001    1.08866494497183
O          -1.37237398358589   -0.30485463420556    1.19957927747383
O           0.51570655898022    1.11568401693339    0.68935863597722
O           0.54774291165592   -1.19444082560745   -0.04650817979466
O           0.78278695490263   -0.69353769134122    2.26769996948636
H           2.03703568047936   -1.01289042314452    1.77429870597598
H           0.02876574341414   -0.97483687307940   -0.87335019252835
O          -0.74597159140754   -0.48764232542725   -2.16604079029931
H          -0.20053153973819   -0.41585384030575   -2.95099621130604
O           3.02705140400112    1.18715991630239    0.10292348907097
H           2.04218317608571    1.22831847432349    0.24737677094130
H           3.37657359336058    1.99364303848624    0.48640109022648
O          -3.41195149203860    1.25303084700800    0.10468436712341
H          -2.85305508895329    0.92035219191582    0.82083773844379
H          -3.70147658394632    0.44606613690319   -0.35168894629787
O          -3.05544459268673   -1.38508488521498   -0.73617030161891
H          -2.43810834501225   -1.28568599803178   -1.46927312894712
H          -2.52722592716585   -1.23153044566538    0.06157865221899
O          -1.19378186998284    1.85879879111082   -1.25524022334653
H          -0.97605186188491    0.46505335282260   -1.89490779635842
H          -2.08808797593402    1.80946512135103   -0.84132732975310
H          -0.56721711220622    1.78777799071896   -0.51264074745359
N           2.99596470887963   -1.19818360147388    1.20847633810167
H           2.76389480135133   -1.87273504087871    0.48346895264666
H           3.74677215308057   -1.53114957686094    1.80427443161966
H           3.21140367676997   -0.26338209253826    0.75852050341237
