    26
        -50.46122214  Gyration_radius:  2.40364182392 Dipole_moment: 8.892
 S          -1.58757251493675    0.73011160625186    0.09955914886999
O          -1.48103127328738   -0.70134556793633   -0.16787035638953
O          -1.83451821772974    1.51163456462724   -1.07933017305083
O          -0.16784765146430    1.16488857718591    0.68517521841955
O          -2.46955687467035    0.99450346687187    1.23473108188329
H          -1.68132339342858    0.50003106660824    2.31492104712111
H           0.48009565328149    1.27558819906109   -0.05078568075743
O           1.63290661570841    1.40768894665225   -1.22244345867966
H           1.91738656821427    2.31537172569785   -1.33606140568217
O           0.15848503923461   -1.70458449777301    1.56969094132721
H           1.00228921779182   -1.52997841599776    1.12527671231441
H          -0.51861160138081   -1.50339759488887    0.87734001491695
O           0.06794006522612   -1.69569066083873   -2.11480608827947
H          -0.64738837242320   -1.47706392283506   -1.48932739636600
H           0.86438481900630   -1.74067553635804   -1.56993750470184
O           2.21349574153318   -1.08848415366229   -0.24634042548492
H           2.10099159931794   -0.17461039456903   -0.56179276280821
H           3.10995141381978   -1.34879528078930   -0.46276149884293
O          -0.09113893195673    0.83532693288728   -2.99340239824584
H          -0.07814041865601   -0.14495777850449   -2.92634124057194
H          -0.86462779815728    1.12322675812619   -2.46636433790282
H           1.01449450013917    1.20352079839441   -2.01344296103709
N          -0.95944014096544    0.10786496168535    3.06198269950645
H          -0.40395963309871   -0.65743223853828    2.53721338005812
H          -1.43884007574016   -0.27051080534239    3.87286751663612
H          -0.33842433537533    0.86776924398551    3.32224991775062
