    26
        -50.46167935  Gyration_radius:  2.40148130842 Dipole_moment: 7.753
 S           1.49448083894447   -0.33023575280112    0.26534729374424
O           0.20953692308952   -0.97076294888393    0.57708308781512
O           2.06058995438885    0.36199401675761    1.38423075025764
O           1.15492857847712    0.72366604671669   -0.86952606151895
O           2.38055752350389   -1.26643562499141   -0.41945003855271
H           1.66141180166483   -1.45799234639730   -1.63227861087602
H           0.62209988728296    1.46344047811233   -0.46143130200183
O          -0.29078309723546    2.58746052869993    0.20738026852621
H           0.09309824003503    3.45806145203968    0.09153259767186
O          -1.19998711751991   -2.26343830242809   -1.30113815037189
H          -0.73965222759579   -2.10580893635022   -0.45315770146561
H          -1.87404326718441   -1.56997031316169   -1.32974183900008
O          -1.49219590833626   -0.28231054238975    2.58267380654359
H          -2.24621427178008   -0.10367704282484    2.01349952137937
H          -0.82780648775196   -0.70698462506177    2.01270729929562
O          -1.91973907613275    0.33397775005448   -0.47214287327676
H          -1.13588685160826   -0.05701036301922   -0.04588506145099
H          -1.77247802305115    1.28380957184123   -0.43466634744140
O           0.19754039701923    1.83907116649114    2.60889555861243
H          -0.46645032966842    1.15953236293964    2.84227031881904
H           0.99896436226938    1.33616980189228    2.36331898725371
H          -0.17147709491620    2.36562860215116    1.18998976265083
N           0.98269851485705   -1.46061115503580   -2.51237205780451
H           0.87401510187762   -0.48058744320945   -2.76767386055750
H           0.04759312756781   -1.84836673004819   -2.16003045397657
H           1.35919849178143   -2.00861964106150   -3.27943489428619
