    26
        -50.45329872  Gyration_radius:  2.50316308072 Dipole_moment: 5.761
 S           0.13748333727964    1.13584647417677    1.07076394247527
O          -1.17956082718692    1.66550687537701    1.42184525668002
O           0.40918920422531    1.31932550252219   -0.35212302729342
O           0.23570200802859   -0.28726584556440    1.42464933796193
O           1.18239010685612    1.90792075996787    1.88965736310095
H           1.97446135043651    1.28154990499217    1.92734695969504
H          -0.95245114765477   -1.18136999782625    1.04331146203510
O          -1.77468135753834   -1.70429063824435    0.78172827789294
H          -1.99019156905700   -2.24328649608180    1.54479628842700
O           2.89886172328502    0.03176268452526    1.75692041436637
H           2.11533378270770   -0.53655305605621    1.76128496096828
H           3.15822611604776    0.10713050277270    0.80241666369790
O          -1.15733314929675   -1.99361963967868   -1.89826101361650
H          -1.28428771572071   -2.06529095922891   -0.93725315492880
H          -1.76938708898915   -2.60582791967068   -2.30993958199174
O          -1.51366827880365    0.66826297042027   -1.95510180977086
H          -1.30962705305830   -0.27599792032415   -2.13583208377874
H          -0.71989778832621    1.01847021062549   -1.46741396155153
O          -2.91031885736112    0.53402054357106    0.07127190917629
H          -2.27644060457835    1.11593958608868    0.68909025711070
H          -2.40386640815994    0.63840910100376   -0.91737417059446
H          -2.69804157679392   -0.39894951407221    0.35939166992908
N           3.04762765088930    0.38632584319303   -0.89465388265038
H           3.64832880862506    1.10100331510618   -1.28548835723185
H           2.10246044677780    0.77060476954491   -0.84658274942549
H           3.02968887736904   -0.38962707716103   -1.54445096067759
