    26
        -50.45329862  Gyration_radius:  2.50339227876 Dipole_moment: 5.757
 S          -0.83493946893694    1.32541192239578    0.02639354724965
O          -1.38571782861837    0.00928318165666    0.33741247486506
O          -1.18916050093288    1.73002723440729   -1.33347155671658
O           0.62421281474889    1.31644936877267    0.20149804425581
O          -1.42826646832818    2.36367824296228    0.98990373503256
H          -0.85532790245803    2.28345965918976    1.81831758476960
H           1.45544909493525    0.66556156817640   -0.91320590255214
O           1.93835289010528    0.24134414446136   -1.69077219525480
H           2.66262674459952    0.83433747792051   -1.89817745355572
O           1.51103961362161   -2.39103963597652   -0.95959971195364
H           2.03101041725446   -2.97346582761102   -1.51571365649114
H           1.82897044431017   -1.48609827514675   -1.11695146725701
O          -1.05688318452841   -1.79995105308282   -1.48188783016931
H          -1.31470563567274   -1.20093400611654   -0.73001760442057
H          -0.20064470858907   -2.19962484847990   -1.21179341366520
O           0.26033001926598    1.85198693421731    2.82574212924321
H           0.85096406457322    1.67287380597520    2.08012400875416
H          -0.06843272205330    0.96185483276409    3.11473027814574
O          -0.34409825447402    0.05511359415524   -2.93980951287362
H           0.61893835263998    0.11199738387952   -2.67937721463748
H          -0.72023427937719   -0.84920197567826   -2.40556808826446
H          -0.78431945478017    0.82957248427590   -2.36686964561735
N          -0.76383843629402   -0.61383591842569    3.04883885488917
H          -1.58512038850491   -0.78180377659686    3.61599218636156
H          -0.17778681962926   -1.43734985823882    3.10457914165063
H          -1.07241839288682   -0.51964664986680    2.07968326823121
