    26
        -50.46862864  Gyration_radius:  2.47500345707 Dipole_moment: 4.023
 S           1.78556436779552   -1.08013724956986   -0.83141593125515
O           1.99571719664047   -0.74869121819112    0.55130824434775
O           1.07368356547415    0.00158790233522   -1.53321487647772
O           1.16757233709625   -2.36773890410474   -1.07132637688720
O           3.21359583472257   -1.16002380672176   -1.52186232149872
H           3.03821236212053   -1.76312986304304   -2.23645808239063
H          -0.14027738319948   -2.30148661830116   -0.13648859091009
O          -0.98843008230884   -2.20323098482448    0.36221264890943
H          -1.16151008226526   -3.05729748248970    0.76213892951871
O           1.05806907824761    1.03005223267603    2.29929940938517
H           1.57816175785529    0.31032497599165    1.89525054280589
H           0.79087880112578    1.75188088569849    1.00594052414200
O          -2.16173089508006    1.65648628647545   -0.17627170397871
H          -2.95458622553209    2.09201324456276   -0.48945565146089
H          -2.01183340605178    0.86941300216189   -0.78004674513007
O          -1.57659215388092   -0.40518448503201   -1.64386535975570
H          -0.61501843023743   -0.28935080812231   -1.77881850181648
H          -1.64497114560550   -1.16269194573507   -1.04271576454532
O          -1.37993256565850   -0.00598590098020    2.00995635821056
H           0.16484010850532    0.63709022067344    2.43904150128042
H          -1.81513087536057    0.60475747550399    1.39993155899014
H          -1.22100572772657   -0.81913720818537    1.50061520065061
N           0.52269782620451    2.06458043079250   -0.00546719366174
H          -0.51125203716870    2.13364024350532   -0.06311127439977
H           0.82319332157460    1.27693673942494   -0.64828055377689
H           0.97008445270171    2.93532281544459   -0.26689599034075
