    26
        -50.46862861  Gyration_radius:  2.47501406158 Dipole_moment: 4.020
 S           0.24082163356532   -1.96093291563784   -1.06895154373971
O          -0.20911592185955   -0.71707875586144   -1.71679836761052
O          -0.41647187776521   -2.15256453988756    0.19488530047029
O           1.68588127116583   -2.05063295323544   -1.03422081609106
O          -0.23357204233261   -3.13122764942192   -2.03212599593983
H           0.50762249244625   -3.19204058292804   -2.62551596000612
H           2.06664873200771   -1.02131225402374    0.14207865819007
O           2.28719956335915   -0.31238975499751    0.79517507027062
H           3.02122313109735   -0.64770494661904    1.31290419689520
O           1.42126024148094    1.35627458842058   -1.22249737019760
H           0.89145535918666    0.61071630412595   -1.56849158590301
H           1.98493517147562    0.95539255055236   -0.54326376594340
O          -0.35800859982372    2.70349681118087    0.10652895899863
H          -0.29342060162004    3.64057449612014   -0.07812107390101
H           0.36469481590360    2.25762703657753   -0.42764434434303
O          -1.83899790068235   -0.68333200899279    1.90285901652449
H          -1.38988093582287   -1.43772873811492    1.47755351255605
H          -2.07567845005258    0.07557442545515    0.62467130182743
O           0.26551834587438    0.91546183550886    2.24424489828016
H          -1.10486243121696   -0.13632875648228    2.26830112662952
H           0.98730187294318    0.43635000925562    1.80217642050155
H           0.06877689171431    1.67386842126135    1.67802695171089
N          -2.01704981870241    0.59304151758152   -0.33518992499286
H          -1.57354652045928    1.51865647943684   -0.18112182759522
H          -2.92484713100204    0.68286644439185   -0.77624556318594
H          -1.35788728086898    0.02337293634637   -0.93921728342157
