    26
        -50.46862861  Gyration_radius:  2.47505220247 Dipole_moment: 4.018
 S           1.10168576890163   -1.67309633971567   -1.01654376201338
O           0.93892677554371   -1.95381477408016    0.38366719956867
O           1.37978629992892   -0.24434480388255   -1.24150212207076
O           0.03305276394303   -2.14873949417952   -1.87043673806244
O           2.40593542695859   -2.43662735209140   -1.50475060516250
H           2.20928156308406   -2.56308618566875   -2.42703856559851
H          -1.27451082923795   -1.53907830208963   -1.15817719498197
O          -2.05436763568484   -1.07362502140754   -0.76713964817020
H          -2.78322429588099   -1.69513473996964   -0.81014922703346
O           0.52637021326338   -0.56724226764180    2.62101226512548
H           1.16983203687053    0.48686622953121    1.76078312221739
H           0.69170647999319   -1.30243331752876    2.00142467925748
O          -0.83144476513530    1.16226656967823   -1.81957598583815
H           0.01733905462274    0.67833375296014   -1.77974973453108
H          -1.50128875422450    0.48790571456333   -1.62862650951930
O          -0.72158103124093    2.61071686094378    0.33371938342190
H          -0.80421293264126    2.11628652383527   -0.53529889638568
H          -0.98810753421213    3.51340988899907    0.15902848907885
O          -1.78962529314323    0.30028554754601    1.62867388353594
H          -1.58072348807509    1.18802742187640    1.30804655703311
H          -1.91312572861672   -0.24528647428350    0.83309818736694
H          -0.41800895496211   -0.32815911097287    2.46999942531228
N           1.49448514918152    1.16646039264137    0.96995202730870
H           2.39288459386179    1.58819649513639    1.17416724096892
H           0.75760288160059    1.88425168277911    0.83242834215252
H           1.54133222530177    0.58766111301699    0.08298817702031
