    26
        -50.47176438  Gyration_radius:  2.45110430335 Dipole_moment: 4.285
 S           1.01329136910406    0.95356966344428    0.57248753054819
O          -0.14055029058425    1.70318051655457    1.00778370489730
O           1.21760174278877    1.00302867107911   -0.86532296016398
O           0.92652918478355   -0.44740975128828    1.03657785207441
O           2.29761875894167    1.56081572403604    1.21568951966442
H           2.20757147504968    1.34917870250720    2.16452800975772
H          -0.79449637954322   -0.54563173122862    0.99484983794527
O          -1.76312440425692   -0.60698128902175    0.90456698323380
H          -2.08649007053743    0.18888133178682    1.33530953279966
O           1.73542460953652    0.25494809710470    3.45194606846148
H           2.40850021293786   -0.33533818569723    3.79824846006192
H           1.30779967521850   -0.20998237375737    2.70795156848292
O           0.36146151116330   -2.73120246546591   -0.23519616467815
H           0.72566403112541   -1.99785016965162    0.30049483331892
H          -0.50480448091354   -2.91055954208641    0.14084610855258
O          -1.27060623095162    2.35023977741666   -1.30457836103944
H          -0.46159641263841    2.45750528866646   -1.81073452559410
H          -0.96051814423111    2.22319464265142   -0.38422913780948
O          -2.28072856504436   -0.08355660168909   -1.70511090710612
H          -2.08867923238992    0.88227599618343   -1.65920931372940
H          -0.93711416627912   -0.64810837617844   -2.14607061598565
H          -2.29897286278138   -0.36980055309997   -0.76862663402080
N           0.10167668772259   -0.95346978761218   -2.21368512495592
H           0.23162796103259   -1.80232325816538   -1.61135468306086
H           0.65041460776831   -0.17256893870520   -1.75890328819392
H           0.40249939290655   -1.11203537778914   -3.16825831346630
