    26
        -50.47176459  Gyration_radius:  2.45079835776 Dipole_moment: 4.280
 S          -0.06446177087572   -0.02908265631523   -1.50327243109099
O           1.08154007619864    0.80770896970447   -1.19040394251924
O          -1.32675110407725    0.64750878343842   -1.32528817102766
O          -0.02851349280410   -1.27620189329446   -0.71018016407165
O           0.09422357697889   -0.44308192338846   -2.99853331252070
H          -0.58476249937824   -1.13325206932555   -3.12352708956197
H          -1.04636954806578   -0.71205455972189    0.56227371579925
O          -1.56930973536334   -0.35800996727603    1.30476407565110
H          -2.32212932575424    0.06072772537463    0.87884454978433
O           1.22397078501701   -1.92754381423269    1.56089719992823
H           0.46591623559403   -1.97737149375475    2.14986708879718
H           0.84455020023591   -1.86037974565741    0.66142993183789
O          -1.48081496035263   -2.52314940644277   -2.53263909595459
H          -1.13576237687797   -3.39395802207633   -2.74261479518334
H          -1.06960294592762   -2.25232298736967   -1.69001798471680
O          -0.56897984130543    2.91203791925849   -0.16721659957144
H           0.26932355732512    3.00925407424785   -0.62525120199661
H          -0.99746254224018    2.15264540881636   -0.61364231299809
O          -0.17493528410129    1.78211680004772    2.21439862245948
H           1.15412164477088    1.17370766648615    1.78767729537270
H          -0.38065398618112    2.37301751629796    1.45255544465676
H          -0.77288981992152    1.01603989669326    2.09239418528565
N           1.94547887881057    0.63037337692765    1.28227750235225
H           1.85081197088848   -0.38525505260797    1.52696319268526
H           2.86780021294496    0.99128741638313    1.49654343234906
H           1.72566208454024    0.71523802772113    0.25170086427240
