    26
        -50.47176439  Gyration_radius:  2.45110517242 Dipole_moment: 4.287
 S           0.00989709875573    1.35268752781591    0.65985243215563
O           1.40966426780980    0.98431421386060    0.53149706941279
O          -0.65764148903332    0.67644917358037    1.74602577360807
O          -0.70615397315673    1.12160473061260   -0.61271477992749
O          -0.01361240460073    2.89095073185591    0.91532318399776
H          -0.95478839721109    3.13092945618207    0.81633445315124
H          -1.29305194236922   -0.44836285347834   -0.20664982266248
O          -1.56331959742885   -1.35974102149363    0.00888278193161
H          -1.92592352460127   -1.28990458949074    0.89604774303779
O           1.18429124891786   -1.07697445744268    2.50565409643852
H           0.42615083305001   -0.47219402724433    2.36816462582736
H           1.95386596064781   -0.53028950336286    2.32912137099411
O          -2.50522344380124    2.95238371536406    0.01462689291409
H          -2.06028362412508    2.17027466510712   -0.36332964152872
H          -2.69436676914243    3.54465787524566   -0.71676079720851
O          -0.16700531112658   -0.42573384590367   -2.72638247385254
H          -0.39293297526339    0.28358519448925   -2.09137927483750
H          -0.84984033986039   -1.09246219905908   -2.61105023314346
O           0.74500606684677   -2.71329995118833    0.44803023274933
H          -0.17355258470582   -2.43277642669596    0.25620528332059
H           1.51780476989190   -1.82527519924262   -0.51812012250571
H           0.94963431310298   -2.29377853855066    1.31636394709702
N           1.88828640275912   -1.00090936073961   -1.11803549760712
H           2.84016770655999   -1.14337172612465   -1.43505827582856
H           1.80992899161112   -0.14886946650555   -0.49702699000154
H           1.22299872649349   -0.85389409758316   -1.91562198750108
