    26
        -50.45181102  Gyration_radius:  2.49797635977 Dipole_moment: 0.837
 S          -0.11165235214975   -0.47318345544028    1.46912997723927
O           0.40625304248752   -1.77570731725555    1.73715587978800
O          -1.02138386390017   -0.40809240664017    0.34979649145239
O           1.05152031620292    0.52246989775199    1.20834259527609
O          -0.76059086593644    0.11441682106344    2.71273936060302
H          -0.98832505525777    1.09534822258945    2.50583728812371
H           1.54642083373024    0.22619727569870    0.37811174595668
O           2.23629511915328   -0.24892100406160   -0.91916777954252
H           3.18959687024151   -0.30170872803112   -0.82027530072977
O          -1.56857002675611    2.08066334377904   -0.45525807233262
H          -1.50589507396609    1.11691556613437   -0.32145629533924
H          -0.72444989166976    2.33174086990979   -0.87687308491881
O          -1.36087556367166    2.48746701387142    2.08816085055048
H          -2.22704496902832    2.71262623834222    2.43489756629863
H          -1.45966733226437    2.44501193136899    1.08598740543710
O           1.05714902187849    2.35688130662786   -1.15053586825889
H           1.34900378421387    2.51354277474519   -0.24837121986148
H           1.40730310502057    1.49182111049055   -1.39894331532121
O           1.35601800844429   -2.62406510795029   -0.67634433662668
H           1.07395603566903   -2.56201742363247    0.25214977801746
H           0.51495675162046   -2.67885596626676   -1.19483216097105
H           1.90781079007322   -1.21539060796689   -0.93203104489550
N          -1.08693754848051   -2.39768226757402   -1.78510639816806
H          -1.24028639312287   -1.98680907928549   -2.69718748383713
H          -1.27647229642523   -1.68337562683608   -1.08500051441098
H          -1.76413243590049   -3.13929339139576   -1.66092606359933
