    26
        -50.46045001  Gyration_radius:  2.45544715394 Dipole_moment: 6.760
 S           0.79987892495886    0.46039697000995   -1.26099850105127
O           1.27013646932504    0.44590461539586    0.12446245240247
O           0.27652719918135    1.73289006810108   -1.66621204255051
O          -0.35532206171488   -0.61786876802047   -1.33225718334557
O           1.80776492936176   -0.09739203245576   -2.16599032291714
H           1.79264368637269   -1.45744627996794   -1.80904753426388
H          -0.85542159676978   -0.67200045041292   -0.47269698230904
O          -1.59349940902655   -1.02356730420973    0.91677622977256
H          -2.49270242691147   -1.29712809388310    0.72808563171419
O           0.65811108246111    2.25035414683676    1.97754161960163
H           1.25676379002791    2.03891136907204    2.69540079838676
H           0.92842135903577    1.68548810843233    1.22435753677554
O           1.02120281839940   -1.96673157706650    1.02935786786139
H           1.23769108834338   -1.01780667119491    0.85366226501691
H           0.06760606979730   -1.94738344587543    1.19955154239248
O          -2.13028305175236    2.29315869260582   -0.73498751254971
H          -1.25466856485265    2.06971774359469   -1.12173707429101
H          -2.21359375012606    3.24366310875273   -0.82934496155590
O          -1.88243777460424    1.36396715841759    1.77664542486039
H          -1.00855070835782    1.74475274071234    1.99763144385589
H          -2.10984657969040    1.76426805157090    0.91026544714391
H          -1.68245935668966   -0.10245830561770    1.34185205800970
N           1.66162713618350   -2.50890812848717   -1.44524604295655
H           1.39505287852422   -2.41767099425125   -0.40486750566303
H           2.51332887221461   -3.04766877192382   -1.56681184092087
H           0.89202896631829   -2.91944195013414   -1.96539281341397
