    26
        -50.46044989  Gyration_radius:  2.45532855413 Dipole_moment: 6.758
 S          -1.45546926742649   -0.38821620740827    0.41617262603301
O          -0.40849231601936    0.15873748025814    1.27961380149307
O          -1.52865236908347   -1.82018829228281    0.45535443689009
O          -1.08208970264747    0.06842949770668   -1.05153829080310
O          -2.73364042822130    0.29107327384569    0.64181570665220
H          -2.47794058846084    1.56751617882025    0.11024330321208
H          -0.09536343089076    0.12297654005965   -1.17505087963918
O           1.45540340421639    0.47270407016839   -1.44365874668087
H           1.65583250912899    0.29821482108427   -2.36473616525885
O           0.37232270666886   -3.06481308522570   -0.89018950500365
H          -0.36344269132481   -2.60659462145199   -0.42661807312706
H           0.37237475951729   -3.95869543494599   -0.54341803300837
O           0.38533091842679    2.39930757537201    0.25426301890677
H           0.94875278279658    2.03397159253877   -0.44415007946919
H           0.18471200433499    1.61102692702178    0.81690505852548
O           1.62203080452306   -1.21970254910004    2.30051077943976
H           2.00114196932687   -0.61205208737273    2.93735270231783
H           0.79649518215779   -0.79886648872440    1.98303345703131
O           2.48295392430590   -1.53067619076072   -0.23770733681442
H           1.92646746101053   -0.26776601921339   -0.92713268226527
H           2.32766680542234   -1.45319240121583    0.72531008885830
H           1.82019016686730   -2.18847097059081   -0.53862945907789
N          -2.14983778113678    2.52718592911672   -0.36574784860349
H          -2.65360805282753    3.31914798790494    0.02088426183142
H          -2.31067225531335    2.44422655952016   -1.36507973971587
H          -1.09246650535447    2.59471592487112   -0.16780237172912
