    26
        -50.46044999  Gyration_radius:  2.45540424385 Dipole_moment: 6.760
 S           1.05498962193371    1.02922060828745   -0.51925944081707
O           1.27699397918051    1.98776731725954    0.52443205105355
O          -0.34891793078602    0.92761844683822   -0.91880156322964
O           1.45510605263982   -0.40763276388114    0.00757741211905
O           1.92531455224359    1.19064013242322   -1.68649212631697
H           1.82847491612633   -0.07397767533440   -2.29367249411280
H           0.68331452748700   -0.86372740731368    0.44134431053289
O          -0.52398186259821   -1.79866925542613    0.95847189891140
H          -0.18676596466979   -2.39691399781882    1.62733210024633
O           0.54039877667109    1.19802172902266    2.93421626537109
H           0.85894211668060    1.47866143242281    2.04765605081788
H           0.46748603635310    2.00643827710073    3.44456323252754
O          -0.76050662499558   -1.47350174734822   -1.79409064868388
H          -0.78801742824466   -0.51498061564650   -1.55174094184296
H          -0.82081673979516   -1.91960958073586   -0.93618785670473
O          -2.42039774095978    1.82086198041743    0.48672093078337
H          -3.15089218892540    1.74845343042551   -0.12938933046003
H          -1.61202890645094    1.61392484265127   -0.02620927333238
O          -1.76935405242466   -0.03984571506084    2.32910365349693
H          -1.09817348885072   -1.13018175048365    1.46888083776462
H          -0.97111776466423    0.39318411037713    2.70039081054190
H          -2.15520834496044    0.63340840434880    1.73294897338548
N           1.68142072380097   -1.12395761212108   -2.65574312835118
H           0.67954875328046   -1.38827936448544   -2.35881069062928
H           2.35291880510022   -1.71202022067878   -2.17132586437297
H           1.80127019681942   -1.18490302524538   -3.66191514869699
