    26
        -50.47064469  Gyration_radius:  2.48582805859 Dipole_moment: 4.194
 S           0.16779560181853    0.91246373741680   -0.83255872922380
O           1.34254275765663    1.29744814009486   -0.06172508386022
O          -1.02332401431481    0.92894862618083    0.02084831613044
O           0.33832845377485   -0.39751678492651   -1.45735558301969
O          -0.01914027608383    1.96522027154463   -1.94594238924161
H          -0.55840566932005    1.47870792767291   -2.63545678196236
H           0.48352752769308   -1.52540971652044   -0.34487750382261
O           0.59528236623023   -2.19566806215344    0.38148576736791
H           0.46092012884286   -3.05204133114416   -0.02804935364132
O          -1.35873708246826    0.33702464948401   -3.40380373060336
H          -2.18255655520321    0.27396602857724   -2.87617850338356
H          -0.75963640799557   -0.31624958141305   -3.01191141182177
O          -0.89456686384833   -0.67204900110279    2.12146559975414
H          -0.50996322264815   -1.44307090916888    1.67070534701147
H          -1.14822439973873   -0.07044134754544    1.38730133705141
O          -3.15769205419042    0.33472549471486   -1.41521301683169
H          -3.79608977953243    1.03630735737892   -1.27756895066774
H          -2.40584882845393    0.52766713138120   -0.81223200025150
O           2.90228432343151   -0.92695059941562    1.13848206070183
H           2.07454639018436    0.00429782568915    2.30205032104314
H           2.21210244100783   -1.57612372931738    0.90937372980238
H           2.85891529306375   -0.26432434793964    0.43770960140084
N           1.29579675857535    0.69065742324326    2.45714376883539
H           1.46371473695787    1.33207614899640    3.22296388832095
H           0.37563094242029    0.14661518971358    2.54102508065803
H           1.24279742233953    1.17371946863625    1.51231822900034
