    26
        -50.45514516  Gyration_radius:  2.45856902046 Dipole_moment: 1.640
 S           0.51471170963024    1.19865177052073   -0.72338543281607
O           1.13165089416039    2.24562237042582    0.03609221445929
O          -0.87875081348426    0.97487706223034   -0.38994902584260
O           1.28105685789087   -0.12286921118266   -0.50587000719897
O           0.65758890343299    1.44562601676901   -2.20402525755400
H          -0.01884101687629    0.77078152898500   -2.66266086641219
H           1.26565164300146   -0.38554389989999    0.49457979539845
O           1.15149994617801   -0.60630997479932    1.96391576142110
H           1.61506035510750    0.14060597123764    2.37568257425642
O           1.36631880932604    2.03385051740768    2.67029168206909
H           1.91744547243537    2.73021811057092    3.03031670751413
H           1.29915949801057    2.20986086039610    1.70856947862638
O          -0.99681487878327   -0.19148090228626   -3.05704287953037
H          -0.62437638638430   -1.08991158732903   -2.74334993921321
H          -1.74098096507777   -0.00232823281606   -2.47705642636611
O          -1.77218312419440   -1.55073333562359    0.17022525146541
H          -1.51403814145389   -0.64724194231264   -0.07411232509829
H          -2.00314750171776   -1.50874762489493    1.10066177732307
O          -1.15736952882252    0.65699993616584    2.29243524831200
H          -0.67130961929309    1.36041670767377    2.73835334258157
H          -1.22341380356049    0.92734575103129    1.35989992373925
H           0.20346356237356   -0.41350989454488    2.15658557899964
N          -0.04228833537233   -2.36805013300417   -1.99375889105975
H           0.86113280151387   -2.08250414639951   -1.63538382087901
H           0.04919273222532   -3.27400170748615   -2.43341581854117
H          -0.67041907029052   -2.45162401080775   -1.19759862568864
