    26
        -50.46847015  Gyration_radius:  2.51384385121 Dipole_moment: 6.127
 S           0.80711761025173    0.25469044868898   -0.03764511054918
O           1.30660539006772    1.29735521100199    0.82082304608340
O          -0.57277342238180    0.52976205200365   -0.49583493650079
O           0.72596937740064   -1.07534676231581    0.76378625955423
O           1.66235070230618   -0.04271113884471   -1.17830171142853
H           0.92401005480601   -0.71965701970023   -2.26371126838994
H           0.29245181720268   -0.87548247448028    1.67757245933038
O          -0.32244286237882   -0.44956313363651    2.96867053885238
H           0.45543127035204   -0.04007007426856    3.39915194379900
O           1.95679794275397    0.91976320791073    3.37130272161768
H           2.83657333620331    0.54182182843617    3.40065873698924
H           1.79908814861990    1.16851432190953    2.43632049728196
O          -1.27907352730369    1.05092022899861   -3.00560556987341
H          -2.23562048146723    1.11969200385567   -3.01327746091560
H          -1.01685483514971    1.04262263819720   -2.05941363214792
O          -1.31824818266836   -1.97803284848673   -0.93109193284167
H          -1.22408470935321   -1.03277079558744   -0.68378978096162
H          -0.88143917603904   -2.45671387286552   -0.22100494912579
O          -1.32087276424440    1.72190720240634    1.77730422167655
H          -0.58440992509416    2.32125315762891    1.92940809266285
H          -1.16451112177192    1.35748237539248    0.88689211089724
H          -0.88224470174227    0.31106795452912    2.69009136426785
N           0.19831039448498   -1.16572926388922   -2.94017940453235
H          -0.41635706800110   -1.74961002066261   -2.32009964114865
H           0.63334987238015   -1.68755252383107   -3.69215879955624
H          -0.37912312923477   -0.36361271245553   -3.27986779508454
