    26
        -50.46847045  Gyration_radius:  2.51366058282 Dipole_moment: 6.117
 S           0.74080103685325   -0.07866831187244    0.40423040034884
O           0.84957123863922    0.14938642281281    1.82195092548030
O          -0.19285420887254    0.87251339042674   -0.23843371229939
O           0.13815086571245   -1.49075003301692    0.15621584494448
O           2.01470123836644   -0.08252174265145   -0.30143549521087
H           1.84790561742883    0.17522383773306   -1.74644415327307
H          -0.66956540316167   -1.61226890943209    0.78505887821141
O          -1.79915301550921   -1.66895566059423    1.75884298792385
H          -1.30208391062720   -1.83961092786243    2.58457994698076
O           0.10101828380191   -1.61854354415735    3.66143576015198
H           0.45573796807253   -0.91277682393083    3.08097376884310
H           0.80723731136965   -2.25769833282965    3.76418908720479
O          -0.87547972472068   -0.63245435800473   -2.31298775807295
H          -0.89785203245743   -1.51639638330323   -1.93568496614227
H          -0.82171458238189   -0.03543800778997   -1.53562637171209
O           0.50404438807743    2.75760565281172   -1.97893534627869
H           0.25701635172607    2.19700879454978   -1.21161711102055
H          -0.30706047433340    3.17838614229364   -2.26991148950630
O          -1.84857827344655    0.99928709783433    1.85687855098314
H          -2.06679838028888   -0.72333359243937    1.82016409370839
H          -1.22985802170823    1.12813862637684    2.58165228018838
H          -1.30727353154482    1.08166446541136    1.05049878203157
N           1.51274361252878    0.41580745800516   -2.75285099974099
H           1.26767358971515    1.43103136914488   -2.71761874210008
H           0.61439742241434   -0.11678833071194   -2.86644889656761
H           2.20727266422671    0.20015172125742   -3.45867625517810
