    26
        -50.46847051  Gyration_radius:  2.51376243503 Dipole_moment: 6.111
 S           0.04423023040993    0.63597383772354   -0.55766705362645
O           0.25052312228755    1.99515198883009   -0.12907791594540
O          -0.84217056883527   -0.10599705221106    0.36606903182001
O           1.40225463632262   -0.12129969313544   -0.53510868884887
O          -0.43806798437313    0.50597342848269   -1.92560524155240
H          -1.09169218917713   -0.79761559140182   -2.16085041251949
H           1.87926321211235    0.09775172757588    0.35202806328790
O           2.47086218207962    0.51182208180255    1.65827777372943
H           2.78195452172561    1.41032344109732    1.42628124894600
O           2.61673609980125    2.97454737911082    0.58651054490864
H           3.09272736927374    3.21508731082819   -0.20930989670529
H           1.70830575674412    2.74298912439290    0.30028009382419
O          -3.27736066309700   -0.98803291455099   -0.23381042311974
H          -3.58936993031978   -1.47815286809073    0.52909883314425
H          -2.46692586787603   -0.51812791605682    0.06026320482838
O           0.05008543239818   -2.54838461536655   -0.15549343055890
H          -0.27264513542606   -1.70566304098196    0.23093976718606
H           0.99163668948285   -2.40680944820715   -0.28807155181605
O           0.03788114007639    1.14320788534513    2.56012182449699
H          -0.40246240167918    0.65227362676900    1.84241974513525
H           1.66908537657410    0.66073249549320    2.21020269144600
H           0.01456824323113    2.06236675269577    2.27842817572576
N          -1.55791254197835   -1.77906669171319   -2.10963974349187
H          -2.43691560242810   -1.62924901991688   -1.56486667221507
H          -0.91190023890145   -2.34726821148136   -1.50683577434742
H          -1.72269088844775   -2.18253401701461   -3.02458421374861
