    26
        -50.47176457  Gyration_radius:  2.45092645924 Dipole_moment: 4.275
 S           0.89501955716764    0.52061480502722   -1.09251972764497
O           0.90063405600007    1.55693508849383   -0.07400440042220
O          -0.30803458292276    0.51513620494850   -1.88968195204650
O           1.11875609366304   -0.80745610124050   -0.48290081724085
O           2.12296059908441    0.80582670250678   -2.01069125381997
H           2.19210497967979    0.00503915114917   -2.56478739503658
H          -0.54850834915666   -1.22427877543158   -0.34073554128536
O          -1.49385625050338   -1.42004150054108   -0.20596743895706
H          -1.89661889768228   -1.21108796696635   -1.05305800570745
O           0.80356357590855   -1.71593106802192    2.01281093330404
H           1.10046752772927   -1.46978077907319    1.11357033253080
H           0.03619699107074   -2.27902291857079    1.87807337079460
O          -1.82407704709072    2.26963169601746   -0.59922827684883
H          -1.11976917915473    2.85958226474764   -0.32003721740260
H          -1.37945530795932    1.63379061072981   -1.19723947723671
O           2.08699292764781   -1.73634167136746   -2.75925174079534
H           1.65918780599905   -1.66613540286003   -1.88482977634197
H           2.89183358930456   -2.24444888318850   -2.63455277811034
O          -2.42864460375687    0.57884962132355    1.37040835195575
H          -2.40697490450136    1.27946701293631    0.67723395985440
H          -2.27483543323488   -0.25282938325721    0.87661766702851
H          -1.07430163937990    0.76215587799031    2.04209527114079
N          -0.01534392212829    0.81454502411883    2.27153074770216
H           0.18370813231170    1.40151905252382    3.07321142454619
H           0.44045266787203    1.18885478477970    1.39416297145013
H           0.33854161402787   -0.16459344677251    2.39977075859492
