    26
        -50.46288581  Gyration_radius:  2.38952709242 Dipole_moment: 8.966
 S           0.44874945051938   -1.20647758286682    1.14603029194300
O          -0.42181354461645   -2.47611327514933    1.12399030082493
O          -0.31695684818709   -0.11704419524729    1.74373882165268
O           0.82100918091725   -0.87825567721128   -0.23647524542514
O           1.66460779445906   -1.49349665718582    1.90359439392395
H           2.53232880554307   -0.45390659276186    1.32706910025706
H          -0.09541197758042   -0.77061852242795   -1.48505957202014
O          -0.69289498607654   -0.64143527489983   -2.27729426282661
H          -0.23040716605306   -1.02466985282713   -3.02349885463729
O           0.92850739497531    1.94465363587429    0.74483913076470
H           0.39454365129831    1.28272285182711    1.24700080050420
H           0.43962310524110    2.05615310501841   -0.08663029937774
O          -0.85451212773942    1.93126434056204   -1.43053180238340
H          -0.81454122319579    1.03385280434479   -1.81994275194513
H          -1.26798547121718    2.50178736612939   -2.07985809684619
O          -2.54874733118460    0.73464944183644    0.55691850985910
H          -1.84415373394737    0.48602131900757    1.18427813566248
H          -2.10878715134631    1.30316504756257   -0.09112629663431
O          -2.38213334714070   -1.75834741237675   -0.36491902017732
H          -1.24577506701588   -2.26763546010635    0.56648032977484
H          -2.65228092612222   -0.88772810270158    0.01435505946760
H          -1.96705482484774   -1.53453880500825   -1.21206570629222
N           2.99315760431630    0.37125865079670    0.77224622802654
H           2.19815186754136    1.11116361060730    0.69786624593335
H           3.20289073121811    0.01958528836961   -0.15764529495255
H           3.81988614024123    0.73398992883285    1.23663988492093
