    26
        -50.44460290  Gyration_radius:  2.78499049774 Dipole_moment: 7.133
 S           1.79081267333723   -0.66685581184837    0.04714272187713
O           1.58717326178645   -0.34839594417023    1.42199348782645
O           1.47207379258219    0.37652437630991   -0.89828331559026
O           0.95376762617419   -1.92441690130210   -0.33231268220142
O           3.21718483577722   -1.15883357084680   -0.19302268209248
H           3.30504850890874   -1.20268500688396   -1.22089568963763
H           0.00030324092940   -1.80783494637730   -0.01624121029030
O          -1.42171061660341   -1.50017894727142    0.51930337463040
H          -1.95035673774395   -2.28716793681738    0.66402392459581
O          -1.51047541955162    2.02374083589084    1.99365827167393
H          -2.44355647447927    2.19790139482100    1.81389147983217
H          -1.12429200534219    1.87238402148524    1.11476677783137
O          -1.12632116479553    1.05731167239122   -0.59965613841211
H          -0.17659210126036    0.96667126569721   -0.78957461429100
H          -1.42616706548548    0.16870482213227   -0.36197836266516
O          -3.54467856601408    2.39106502861016    0.04373535399058
H          -2.78948240019294    1.95131293506409   -0.37334600505649
H          -3.64529211588888    3.23393904673863   -0.40042712020310
O          -0.80027324470725   -0.43826228822426    2.74619655791954
H           0.15346452126100   -0.39553881999387    2.57133383120484
H          -1.11201307668310    0.49320366914594    2.65980862678696
H          -1.23928027165596   -1.10264354593444    1.44803675781094
N           3.05420723456428   -1.04394553517717   -2.73885875000586
H           2.61645857017334   -1.84099712220724   -3.18084119793596
H           3.79914001718915   -0.70266075884202   -3.33137615742901
H           2.36085696772512   -0.31234193239570   -2.60707723018136
