    26
        -50.45652637  Gyration_radius:  2.52096128422 Dipole_moment: 7.729
 S          -0.38068001133199    1.37698426463841   -0.12600843238282
O           0.01977823775162    2.00456965181921    1.09740351647811
O          -0.82434764158783   -0.00697861621459    0.05707151881986
O           0.86027677672146    1.29490709885221   -1.10983600755709
O          -1.35039746963373    2.12713176063630   -0.92853372805427
H          -1.22224586838998    1.48083243154755   -2.17483352684123
H           1.42815634771878    0.51894384524834   -0.85916603812767
O           2.22631701922841   -0.83042947751031   -0.47203262749428
H           3.17681161573090   -0.72656015870660   -0.54876939755672
O           0.15403726159534   -1.11619915889706    3.72969697764607
H          -0.68216224696478   -1.14817913527154    3.21519365931248
H           0.02182481178780   -0.44266146146723    4.39911622481667
O          -2.03599899677047   -1.07788969129323    2.16642574318175
H          -1.62662529623055   -0.59742557243203    1.41732149566282
H          -2.28307782351433   -1.93800739184680    1.82160648930684
O          -0.15396995822561   -1.34294566548440   -2.04406579691773
H          -0.49932277936020   -1.00561161845834   -1.17995845558930
H           0.78773948025868   -1.46296349940072   -1.87137107277148
O           1.71833247398825    0.06958743257036    1.87544250224527
H           2.02081891228620   -0.64136872644555    0.49611756935314
H           1.14722351695940    0.84001329372400    1.69712158947200
H           1.24018649296198   -0.45930822707473    2.55060831881445
N          -1.00123769830576    0.90867832157571   -3.11418256977467
H          -1.83828569588738    0.80003659651501   -3.67857795267267
H          -0.62069180111309   -0.04147513750415   -2.79449802347302
H          -0.28245966971230    1.41631885086669   -3.62129199579492
