    26
        -50.45154311  Gyration_radius:  2.59996916972 Dipole_moment: 6.024
 S          -0.19521667624167   -0.59236734628018   -0.71240840335393
O           1.15112676501257   -0.74338473841091   -1.21408266159266
O          -0.85056186524661    0.59687381914245   -1.29813289206793
O          -0.21827947720582   -0.50773208846186    0.75054898355440
O          -1.00718399927193   -1.82320927781175   -1.14443256965712
H          -1.95977453296939   -1.65917918459625   -0.87792917728289
H           0.61172381514277    0.76475611098777    1.17052102128582
O           1.11172754575447    1.61515902767883    1.32882685409494
H           0.66995958582308    2.05888857760914    2.05488409011285
O           2.69676351422343    1.23845087881596   -2.24781176481898
H           2.21175406970936    0.40790766692489   -2.38196546026395
H           3.25272352860809    1.04051318756136   -1.46180295177166
O           3.31823518407471    0.24219074801697    0.15149113754240
H           2.64652017305999   -0.37405460225768   -0.18697953186860
H           2.87110684579141    0.75810142540574    0.83136253063139
O          -3.42897488521650   -1.59910978367861   -0.29742687757642
H          -3.85011997019734   -2.44913531020479   -0.44207588912417
H          -3.20761269192603   -1.54595755870709    0.67373301315303
O           0.76802418384458    2.41015266436117   -1.12587347545596
H           1.59164021608136    2.03939798343990   -1.66202571736318
H          -0.03176950794647    1.63626295771834   -1.27710410802842
H           0.98821538748917    2.28903979593228   -0.15602790899532
N          -2.47118121459203   -1.49636711404411    2.18365036919322
H          -2.26511711025051   -2.34797728976283    2.69070102059371
H          -2.81273305231614   -0.81479383520190    2.84922753218394
H          -1.59099582120930   -1.14442671410371    1.80113281687125
