    26
        -50.45154304  Gyration_radius:  2.59995201488 Dipole_moment: 6.024
 S          -0.81642379323506    0.27148316047090   -0.39560106256720
O          -0.92731603244895   -0.79471618778945   -1.36419335984738
O           0.00455344231610    1.38365624788408   -0.92082502918773
O          -0.25810508503120   -0.20843660200134    0.87163608807641
O          -2.22497107706150    0.82570600396227   -0.13124527915447
H          -2.12228144074200    1.62724846790385    0.46235209138136
H           1.18747336462878   -0.76395106035180    0.57900491317865
O           2.10545164219240   -1.04246469388973    0.29953403010356
H           2.69492265471536   -0.78894685715905    1.01188517290404
O           0.80446673236990   -1.28228762014982   -3.40110524485152
H          -0.08496985688432   -1.02069262635017   -3.11229618544613
H           0.95964877949954   -2.11361708425856   -2.90034709940684
O          -2.08781460117152    2.75190524185933    1.57272444258976
H          -2.98954158269507    2.95405807741631    1.83127968809500
H          -1.68439428062771    2.22171079909602    2.31508058590381
O           0.75646260826953   -2.96160364264897   -1.32424030061412
H          -0.02737060378487   -2.40276798916538   -1.18702600234076
H           1.39702947796963   -2.66746755529617   -0.66740018054252
O           1.98756178793413    0.35451304542107   -1.89350563584377
H           1.09990659566324    0.91898066696413   -1.50039223702068
H           2.22636702670369   -0.22181710355590   -1.10945446527977
H           1.58431011784311   -0.28962323603487   -2.61867822092932
N          -1.03106403864525    1.03723092804238    3.31246979115451
H          -0.22442113685598    1.28755236503263    3.86998016824569
H          -0.70245242189815    0.47836077158427    2.52220407600374
H          -1.62702825904539    0.44598651300519    3.87815924541415
