    26
        -50.45154303  Gyration_radius:  2.59992504175 Dipole_moment: 6.024
 S          -0.22411197608081    0.72488205282897   -0.56664245329732
O           1.13383423442123    1.19520183973094   -0.21806835877307
O          -1.21963198105224    1.33603303036073    0.28344161045539
O          -0.28111853857006   -0.73792535750184   -0.49655028760983
O          -0.50185253962866    1.15677223868185   -2.01484299766844
H           0.25186396585114    0.81022450694524   -2.57804030833132
H           0.01436009205064   -1.15847632526535    0.99331935479299
O           0.26107407312247   -1.32203177300637    1.94765470773077
H           0.81821678348486   -2.10225075331137    1.95428042842272
O          -0.78004795823337    2.38096892172897    2.75317997027773
H          -1.02520710313170    2.52062908733555    1.82398449745546
H          -1.37884923654615    1.65184621921233    3.02846857663316
O           1.26114237406681    0.11707536471045   -3.57802600848158
H           0.95768140246233    0.27202785705703   -4.47509813041885
H           1.05905945643127   -0.83584595881515   -3.36334892203318
O          -2.14266760411580    0.09239680887244    2.54925677347831
H          -1.52621638218723   -0.64622554845597    2.60140513982493
H          -2.08656033492507    0.40976101123875    1.63186193931863
O           1.29206088261252    1.05352030782287    2.20940732303364
H           0.96399882032018    0.11121858857284    2.30095159037690
H           1.30727925808979    1.18295423465964    1.09413093684205
H           0.50493325575129    1.67039208726815    2.53088685843487
N           0.44933591707307   -2.28590077472856   -2.77175033810685
H           1.11461575674580   -3.00835618023367   -2.52757978899152
H          -0.34680646893873   -2.73304946548352   -3.20875796097691
H           0.12361385090932   -1.85584200025974   -1.90352416239047
