    26
        -50.45875109  Gyration_radius:  2.52103789647 Dipole_moment: 10.928
 S           0.50163635914195    0.58223967367137   -0.80091901925126
O           0.65997459996278    1.11535894941156    0.55157050103599
O          -0.75202352694132    0.93728828341480   -1.40212659311685
O           0.57518471132199   -0.98798251866692   -0.65196387379549
O           1.67351249079832    0.88318776329307   -1.62888261365687
H           2.64838808646709    0.02560812751167   -1.14495463730021
H          -0.24660150739148   -1.27771410360956   -0.16009121955250
O          -1.50922634990688   -1.64034900713246    0.72500778584745
H          -1.33124284870267   -2.25938153574628    1.43491396971983
O           2.71816744913828    0.16795939482754    1.78545754447006
H           1.87177427639003    0.52905830844811    1.40361568878574
H           3.12655828039054    0.90365993189274    2.24541760522202
O          -3.17305558343994    1.75480198791125   -0.27919031179076
H          -3.55685453177633    0.95627814313386   -0.67722523081157
H          -2.35117986597977    1.88198027951210   -0.77329908440505
O          -2.98066376972485   -0.72298242752002   -1.55009614122602
H          -2.19098489157223   -0.19952793948825   -1.75360093395546
H          -2.71706186170326   -1.30514534371989   -0.82896760045174
O          -1.73519151521533    0.70644377005944    1.71366384634782
H          -2.38344389760595    1.17103299582064    1.13277822874219
H          -1.68451239082575   -0.74336135139614    1.17077777625867
H          -0.86099601660010    1.01483222795421    1.41390003324080
N           3.31312702027042   -0.71793856592475   -0.61727534455236
H           3.25964308899804   -0.43048283819261    0.40123319670518
H           4.26210542178656   -0.72221931344072   -0.97642347956254
H           2.86296679273059   -1.62264490210194   -0.73332009294643
