    26
        -50.46445951  Gyration_radius:  2.3926294966 Dipole_moment: 4.511
 S           0.92524448429258   -1.40410267819262   -0.12653937410755
O          -0.44820985553439   -1.63277401106836    0.31501115766995
O           1.26359476671505    0.01523749716177   -0.10051224411320
O           1.03569875419830   -1.89332221036321   -1.60175010105398
O           1.88653069552678   -2.15368274018058    0.67333343320327
H           2.08438942680126   -1.13484977672311    1.76345840981075
H           0.43174327913368   -1.31233528435346   -2.13098443881838
O          -0.50358037524538   -0.20032403788792   -2.93335125826669
H          -0.19237239261754   -0.12938296380432   -3.83738672952818
O          -0.51492343373920    0.11586969832170    2.26790460875797
H          -0.62702075966921   -0.63687797893754    1.64305803590047
H          -0.82096327575673    0.88575477074914    1.74704532380649
O          -1.73123220553185    1.83779755111945    0.49832013473166
H          -2.51729800266305    2.27880352423656    0.82347045607430
H          -2.05385609911052    1.04475714351117   -0.01088643521771
O          -2.42138105315916   -0.31209759373590   -0.85838646690189
H          -1.80649484223809   -0.92168443994174   -0.39863344589203
H          -2.09572221145744   -0.28435954755306   -1.76589675248414
O           0.17720717767839    1.89944472689906   -1.55859574821277
H          -0.26702307919457    0.66652004114702   -2.48423197491892
H          -0.52855009278997    2.16808198031476   -0.95218595080548
H           0.72790256783752    1.29686533257092   -1.01229649988489
N           2.04553532461381   -0.25627641019306    2.39991819917270
H           0.98104327464714   -0.01068243479890    2.43620332210963
H           2.51704789614150    0.48527124195133    1.88695899589967
H           2.45269003113885   -0.41165142031153    3.31695532317154
