    26
        -50.46445946  Gyration_radius:  2.39265020703 Dipole_moment: 4.509
 S           1.40900237522326    0.86435762027170   -0.33291058185194
O           0.24073911869556    1.31556426277929   -1.08475622704222
O           1.15261747092791   -0.40650978468542    0.33712047898792
O           1.70628096580826    1.93003858751014    0.76424980455387
O           2.58921775972041    0.74425777327280   -1.18039779104991
H           2.36349177372997   -0.66920724878439   -1.64641251860822
H           0.92047844747743    1.93122336052097    1.36813045742444
O          -0.38176300563148    1.75314755446656    2.38281001704662
H          -0.12603272427058    2.02459373882022    3.26606904631457
O          -2.09543761840069    1.51252047273117    0.14737030553326
H          -1.28866917122699    1.56478184764245   -0.40709109641060
H          -1.80698742028302    1.81378611157771    1.01717205969424
O          -2.32121623784938   -1.10999191091140    0.04576467288277
H          -3.21844716132417   -1.34638965613901   -0.19316630147957
H          -2.30036254172816   -0.11455694670201    0.07769910719159
O          -0.51917694070869   -1.00830027137960   -2.03256778234632
H          -1.10656699954115   -1.26776017274112   -1.29412305918859
H          -0.32122854744068   -0.06304570854561   -1.84037829242137
O          -0.59430441672533   -0.83458299737057    2.24012932418321
H           0.15090328396491   -0.80725908903197    1.60083621471285
H          -0.51013379348367    0.75749067054006    2.41911635463497
H          -1.34898909430943   -1.09593003723533    1.69220827772137
N           1.97721043516350   -1.66815216751812   -1.82322258779343
H           0.90278285111861   -1.51068901340646   -1.94920186466412
H           2.11542539937157   -2.18247435155451   -0.95617141940668
H           2.41116580185106   -2.12691264420024   -2.61827658880824
