    26
        -50.47136210  Gyration_radius:  2.44305171716 Dipole_moment: 2.083
 S           0.16444158943876   -1.46687327815724    1.45924381300924
O           0.39138300117555   -0.20902309913728    2.17190731870787
O           1.13995609421735   -1.71394903562511    0.43468349251544
O          -1.21291910503921   -1.55256067310583    0.98838111630184
O           0.32600246906921   -2.60688393470262    2.54534052779748
H          -0.31841973371398   -2.33561991743566    3.18956858005787
H          -1.41198998766141   -1.29496831377042   -0.58632444784446
O          -1.56885773001254   -1.09797017456577   -1.54701225184131
H          -2.25674174541867   -1.70227980572354   -1.82948218311315
O           2.08211219273560    1.48289860771720    1.11413546774228
H           1.55467058070002    0.75103805574464    1.51312857245577
H           1.88247905927978    2.25684378607188    1.64493840435886
O           1.11803283169991   -1.10690825323249   -2.13103318807730
H           0.15125794362165   -1.18727660474808   -2.20277954012111
H           1.30984308108723   -1.47496246464582   -1.24382293536527
O          -1.74648659796109    1.14836407236208    1.40508851773589
H          -2.33524016211239    0.39179871425981    1.32599156386196
H          -0.92098349919366    0.75787502448479    1.75825659959974
O          -1.35832500807972    1.62630703284945   -1.19297029783215
H          -1.58587047637072    0.72682337907720   -1.48520245329414
H          -1.53780924815150    1.62213080818144   -0.22410399161238
H           0.19978604172029    1.63344911706120   -1.36641103119816
N           1.24486218454878    1.41846140265668   -1.43199235913866
H           1.65485299338783    1.46529252183501   -0.46656035532283
H           1.71929179801956    2.05833658762160   -2.05856889156968
H           1.31467145299364    0.40965643489781   -1.78440005776267
