    26
        -50.46185080  Gyration_radius:  2.40108966414 Dipole_moment: 4.296
 S           1.16298498283335    1.19823174838346   -0.72694602462144
O           1.99937495608572    0.09434357535737   -0.27487655051978
O           0.63700419518392    1.98291944941202    0.36244616859988
O           0.12608947498832    0.72045808905800   -1.63826274301751
O           2.08664503084178    2.15053462900734   -1.58029842142322
H           2.33920498520968    1.57938676322267   -2.29716742326709
H          -0.55854191437566   -0.70446733934749   -1.09864760983447
O          -0.95221043762019   -1.48083747881039   -0.64152128447805
H          -0.18729099435771   -2.10388908549407   -0.50527493092645
O           1.11024725577191   -0.03820526021011    2.18450910429731
H           1.53170250402724   -0.04862766622601    1.29327954650380
H           1.10419851197883    0.89178551336552    2.43059306687653
O          -2.50576154451051    1.24561137454321   -1.52880913662204
H          -1.55040740688583    1.17384937719559   -1.71839231438079
H          -2.87021920875595    0.37175950336812   -1.68718013386621
O          -1.91190959945278    1.77320530409492    1.00634617949590
H          -2.33321606435065    1.70278625275465    0.11821194658400
H          -0.98901881181097    2.05393181733644    0.81791778933037
O          -1.33980749456941   -0.56159595803414    1.64553593343093
H          -0.37826771428088   -0.43793894075284    1.96703141918525
H          -1.68768919944293    0.43545623764760    1.44658647403544
H          -1.25422742698999   -1.01879282007520    0.68731474348521
N           1.33914750377484   -2.72350902468419   -0.12730989173937
H           1.82054454908188   -1.83139208276916   -0.22973220685604
H           1.79089416068817   -3.39537361963669   -0.73403725524391
H           1.47052969693593   -3.02963034871138    0.82868357497524
