    26
        -50.46185075  Gyration_radius:  2.40102068543 Dipole_moment: 4.294
 S           0.48122123964170    1.55664846169277   -0.81309956050222
O          -0.95455872775386    1.68735601801405   -0.84075076222562
O           0.96927904330029    0.50678960397077   -1.69742777363388
O           1.01229330249990    1.38287800711134    0.53657860009474
O           1.08050255786014    2.91577060154716   -1.34418798777079
H           2.01344457054488    2.76815240478963   -1.23587371977677
H           0.97447403092384   -0.21907036620436    1.00862290749652
O           0.81660536800375   -1.16708975386270    1.21604103987033
H           1.30347537444271   -1.66263646575136    0.50248774583516
O          -0.36767263478241    1.39840024219198    2.84034502632031
H           0.01821602627396    0.64034470328967    3.28531253060551
H           0.19604829373199    1.56421960988045    2.06022451384493
O          -1.26914248922975   -0.83310941706977   -1.92462002684771
H          -1.89769531198244   -0.12048398474869   -2.07478281867130
H          -0.39125462396394   -0.38456096953654   -1.92912764746742
O          -2.38236954849107    0.83083284443727    1.20479344962949
H          -1.99667149564281    1.30221378124444    0.43343629532112
H          -1.81476592996680    1.09861622947828    1.96470563938953
O          -1.57369568472674   -1.42822889827862    0.54923768224009
H          -2.01873990522188   -0.51203353636744    0.89177057094210
H          -1.50326770064645   -1.31566295038339   -0.46350302014995
H          -0.56931554809733   -1.39407838265182    0.90180424722984
N           1.90120879902602   -2.14766478376421   -1.00240921075736
H           2.87346559106158   -2.40319172247813   -1.11654201225122
H           1.75833633969842   -1.24157733515210   -1.44589627884805
H           1.34057908350961   -2.82283394140623   -1.50713942991919
