    26
        -50.45697758  Gyration_radius:  2.52695923702 Dipole_moment: 3.262
 S           0.40677927307010    0.93257407628825    0.48312709328584
O           0.28453430088269    1.76149233898922   -0.71767076789190
O           1.25566737318544   -0.22508321183931    0.21737902798947
O          -0.91191690166771    0.50635796646762    0.95585650725294
O           1.06027551000682    1.80232252141467    1.56900092332007
H           0.76028525072851    1.37775665466837    2.43315886349544
H          -1.61517190918569   -0.24791299444562   -0.22205793510838
O          -2.01942760781682   -0.73117844464600   -0.99827897007639
H          -2.80738634225317   -1.16113541614674   -0.66133684531580
O          -1.96013387120577    1.25559695472350   -2.81867054246088
H          -1.89039392359518    2.03100236003839   -2.25374468379982
H          -2.14044894605882    0.50404389468781   -2.21444455213460
O           0.53875876379178    0.78877144941404   -2.97280777055285
H           0.61307479178904    1.27173663418476   -2.03915762159334
H          -0.44716895767907    0.97024526051808   -3.17500179277555
O           0.06915742234423    0.42911835486443    3.47170616868015
H          -0.65484053840442    0.29012258559739    2.84418320742273
H           0.64801571117455   -0.37126805711905    3.39205249067914
O           0.45249995629753   -1.46909171333513   -1.91643012258763
H          -0.49568272707321   -1.50983190916646   -1.70150537219542
H           0.58117278694066   -0.23321842042916   -2.68165285606614
H           0.88081787523990   -1.14469891666787   -1.08364083929842
N           1.68081132587673   -1.57069648067221    2.69585737039106
H           1.63767321609169   -1.18770668986904    1.74989967033703
H           1.42790314119924   -2.54953734634957    2.64477940520025
H           2.64514501632255   -1.51978147114054    2.99939994380359
