    26
        -50.47441269  Gyration_radius:  2.41116022031 Dipole_moment: 2.738
 S           0.10636689590135   -1.57783424488558   -0.65120265715589
O           0.94907409623172   -1.14526212338724    0.47729833220182
O           0.63987530251992   -1.13852519142750   -1.91009978731384
O          -1.26724956433400   -1.10976127346107   -0.41935961004276
O           0.09675933802932   -3.13196524599008   -0.64581788987199
H          -0.36105044709769   -3.36384487402417    0.18481303344660
H          -1.32159071058520    0.47210199622128   -0.86487108474477
O          -1.35051639821742    1.43698011530598   -1.07358836843124
H          -2.18391835079801    1.58098069302782   -1.52515275422852
O          -0.75304495362475    0.01257730184062    2.14801898446342
H          -1.55913979306549   -0.08505685819594    1.63216174822592
H          -0.06219543488549   -0.45137121090993    1.62727857564632
O          -1.40824684680175   -2.91899412335954    1.52276518442645
H          -1.04261601046354   -2.46701561268668    2.28944986052340
H          -1.66832263498327   -2.22489862019748    0.89092071903337
O           1.07799951988757    1.41710562388577   -2.42325368824037
H           0.18465422816786    1.69200804386908   -2.15912534423110
H           1.00637443136649    0.44345465309577   -2.49942540679674
O          -0.03073982901151    2.41809778662965    1.17883049439697
H           1.32304913011170    1.83483867794359    0.57151300574159
H          -0.60816857108574    2.34409644437388    0.40186102270084
H          -0.30464353717111    1.67938829011784    1.76396943531987
N           2.00891818647880    1.23274719143711    0.02005089168373
H           1.80779476568642    1.40020940219140   -1.01538921970571
H           1.74596827683252    0.23146169946526    0.21367722495956
H           2.97460892091670    1.41848144912111    0.26467728799751
