    26
        -50.46185074  Gyration_radius:  2.40107511927 Dipole_moment: 4.294
 S          -1.18595706840545    1.26186690170111    0.56400999362958
O          -1.34762007195247    0.27699161141442    1.60471406976213
O          -1.70203349684608    0.81324934251451   -0.72236711353144
O           0.19090725551244    1.73171400646477    0.43236376245236
O          -2.03706700219435    2.52233355034747    0.98263891637084
H          -1.82788637248936    3.13409626397814    0.28558716579826
H           1.09339540748594    0.72186729247748   -0.54559408938811
O           1.54934794437930    0.01350001187613   -1.05250286648169
H           1.03975836294701   -0.04977612194102   -1.90577363821746
O           2.29837455218036    1.04187836233482    1.94806278090680
H           1.54335346262786    1.45950587952376    1.49056393224142
H           2.96472228544262    0.89520963775427    1.27278078215358
O           0.75519157592427   -1.05518341315443    2.47594582973008
H           1.44538545633149   -0.35170015328183    2.47875501459649
H          -0.08982728672263   -0.56855086739871    2.35287682386696
O          -1.69196925350278   -1.75860135757086   -0.22979599053217
H          -2.08072064060293   -1.78128790776699    0.64987726454846
H          -1.76354284517350   -0.81330535454174   -0.50040902512601
O           0.82224874195421   -2.02645988785881    0.18701184134760
H           1.21865637497204   -1.20869515268958   -0.36826814137938
H           0.86020482448632   -1.70881741312569    1.21288177980262
H          -0.17364139149490   -2.04271635452423   -0.03933809945301
N          -0.22252486086050   -0.13531096185733   -3.02679674149519
H          -0.19320725292130    0.40317326769308   -3.88282982510139
H          -0.91276011561552    0.28974500348753   -2.40955512424479
H          -0.55278858545825   -1.06472618587716   -3.25483929226338
