    26
        -50.46048040  Gyration_radius:  2.52160460659 Dipole_moment: 3.409
 S           1.39312940562693    0.77116228428091    0.15137155231873
O           1.15548217195272    0.75606814066326   -1.27747132295915
O           1.73919573736392   -0.56436015335106    0.64357317154672
O           0.27242836963911    1.32212153511285    0.90983005995205
O           2.62537425641063    1.70178195274768    0.39338128083438
H           2.58694245960865    1.94203013332748    1.34222812005091
H          -0.60866506434206   -0.02420536423089    1.17741000510338
O          -1.11501127971859   -0.85539969326492    1.33607811646258
H          -0.58477127587189   -1.34875094089106    1.96493008478149
O           1.76493188993234    2.32110038426834    2.82378060652794
H           1.58945824716722    3.25430196273644    2.96416639664411
H           1.00449269295358    1.97017214837597    2.31694771289163
O          -3.20284031980045    0.65975285917660    0.09335915287012
H          -3.88966052355652    0.01811936394009   -0.09863041515538
H          -2.60478769991269    0.24326401202863    0.72717644598969
O          -1.44918548223624    0.41061104216165   -2.02988383017712
H          -0.55411797778420    0.71605591863321   -1.80107327410655
H          -2.04958033746264    0.78691690872177   -1.36218879422045
O          -1.30248761162819   -2.03565523501897   -1.11474625809109
H          -1.49679488683696   -1.18919900171528   -1.60251746884605
H           0.17256838200873   -2.09460473432116   -1.40186990024126
H          -1.33511588880161   -1.76871755624478   -0.17457464244979
N           1.23568539537706   -1.86102135300008   -1.50486721645810
H           1.30050591560467   -0.98266570234148   -2.03798307447492
H           1.79113835279816   -2.61151500909665   -1.89929360187252
H           1.56168508150273   -1.53736392265941   -0.53913292691509
