    26
        -50.46167875  Gyration_radius:  2.40096352843 Dipole_moment: 7.708
 S          -0.65801826227143   -0.88838481853041   -1.09881521717952
O          -2.06816294098398   -1.07928526548953   -0.93588233061495
O           0.10055903641357   -1.13097875018828    0.13588679985680
O          -0.38528573722861    0.63443123067375   -1.44654223985100
O          -0.04440312102652   -1.59041168500518   -2.22163430636803
H           1.20283314331033   -0.90663045281842   -2.29098719346735
H          -0.85448330066188    1.20069121498312   -0.77049000919133
O          -1.55137637893814    2.07037145717197    0.37025056227375
H          -2.16721887954075    2.70133521885970   -0.00574120199771
O           2.76021008555323   -0.79130637557171    0.26797503553118
H           1.89592260366219   -1.23757926772885    0.36039098971603
H           2.66970009817410    0.00324742461768    0.81246528503746
O          -0.86718287403583   -1.01365701717723    2.67217510268320
H          -0.53792977892026   -1.28685018947348    1.79821843456551
H          -0.25587607600722   -0.33849252377377    2.98016944090574
O           0.99012207680225    1.13948409069250    1.30987537929426
H           0.58372621528097    0.35564960815619    0.89762801342394
H           0.33039773474692    1.83389099827807    1.22184884824481
O          -2.91891651003323    0.11376489243464    1.30215474931472
H          -2.36744746365781   -0.32797141923178    1.97869418492865
H          -2.12475027615641    1.36408714195513    0.81884736315314
H          -2.81848543743786   -0.43230133917289    0.49768722200899
N           2.09248365441158   -0.24605606638571   -2.21014692354180
H           2.75868798625749   -0.41427809181122   -2.95739490634638
H           2.51414442410655   -0.43469172203023   -1.24328264920786
H           1.72074998814793    0.70192168658599   -2.24335044319503
