    26
        -50.46048050  Gyration_radius:  2.52131818801 Dipole_moment: 3.412
 S          -1.21639273387897    1.01024654447550    0.24271561120415
O          -1.79632926662489   -0.26138467420246    0.68095124211412
O          -1.02823165482490    1.03140901478526   -1.19342315304177
O           0.01087313010995    1.29539823755687    0.98264610485546
O          -2.24046012706343    2.14190610467996    0.57984629825266
H          -2.12816031029101    2.31724967942190    1.53695330290878
H           0.62559096149365   -0.20619007376801    1.14960426372163
O           0.96892094955079   -1.12541653031871    1.24760102951955
H           0.37345374942379   -1.54373420137722    1.87249963680827
O           1.44137274197029    0.24432532351919   -2.05961359212133
H           0.62734935156566    0.69950797892201   -1.78217569983708
H           2.12070982019682    0.46293010688594   -1.39732955607867
O           3.27080849398877    0.03823353107303    0.00320998768381
H           3.81513052578451   -0.71008208910429   -0.25019570177679
H           2.62321106730397   -0.29333446509754    0.63841429419835
O          -1.20516354988788    2.45005535256857    3.00168008187684
H          -0.54138028565064    1.99051654297673    2.44807745261760
H          -0.84985917056496    3.32333960463773    3.18190112358698
O           0.85805383550824   -2.17872084709402   -1.26444355752572
H           0.96755592730811   -1.97651269282952   -0.31393578947666
H          -0.60885634060069   -1.94235409914322   -1.49696843904577
H           1.19581480291593   -1.35765861564765   -1.71591595180109
N          -1.61055062241039   -1.50712341473890   -1.54724633612257
H          -2.30983657397704   -2.11625025795558   -1.95635705917344
H          -1.52235078785078   -0.60406556478151   -2.03365822418443
H          -1.84127392349266   -1.18229051548189   -0.55483739916176
