    26
        -50.46327886  Gyration_radius:  2.36760644983 Dipole_moment: 4.806
 S           0.38139816179325    0.56876786947923   -1.28840558711216
O           0.55129021910778    1.48646573168145   -0.15809665309600
O          -0.65984253622879    1.03815634275643   -2.19184005684807
O           0.06969599374158   -0.77895035004762   -0.79076503400031
O           1.70384690305527    0.48901010905053   -2.05709061618153
H           2.29329965457911   -0.07920950546622   -1.43149126637061
H          -0.33874227343084   -0.88734641701834    0.83824449157462
O          -0.66629987404719   -0.81297207503222    1.76046694342253
H           0.11708992606113   -0.54596118705019    2.25787143878026
O           1.83667432097139    0.51069499117404    1.90631344757360
H           2.19295449041148    1.24113347847354    2.41437453077716
H           1.36778902300228    0.92044549126266    1.13942503739912
O          -2.39990850604825   -1.68627083385335   -0.66633287490677
H          -1.45001507747754   -1.51754252278201   -0.86386517314007
H          -2.42907913301887   -1.91667085143358    0.26744529136950
O          -2.86167800360225    0.78686418678570   -1.05575647375646
H          -2.02118191834081    0.95892562738595   -1.65421229585788
H          -2.87122938603211   -0.23357426627805   -0.94901673616564
O          -1.77105096238367    1.49594011272760    1.06712561505113
H          -2.53541650247395    1.16086486839882   -0.10550742099132
H          -1.55301744642220    0.64734361624247    1.52497812419148
H          -0.91352498831082    1.74999967579931    0.65600498400175
N           2.92849815829094   -0.98457055240971   -0.34991011410936
H           2.76458923313225   -0.55133976646001    0.55731413426384
H           3.90411262326280   -1.24013182871540   -0.42665296659366
H           2.35974791044037   -1.82007194466934   -0.40062077926251
