    26
        -50.45059717  Gyration_radius:  2.57416663129 Dipole_moment: 4.939
 S           0.74701276916850    0.89505246672672    0.96772889010897
O           1.92888997027632    0.31427997497515    0.40901960047967
O           0.44940398388296    0.50714839284378    2.32512986154862
O          -0.47120430121628    0.54629122515136    0.08055793523327
O           0.79208592691922    2.41825997923723    0.85924570483949
H          -0.01677371792483    2.73883610480874    1.42381797232346
H          -0.48094283421441   -0.49083932060211   -0.12171071102016
O          -0.27311868378847   -1.90053478384054   -0.39347272976559
H           0.12705159854517   -2.19424059948907    0.45720353748075
O          -0.19007967443168    0.54684827476216   -2.80106770422479
H          -0.35729171648570    0.95941324041812   -1.94747478818070
H          -0.90818033507618   -0.10358850017841   -2.91564268288157
O           1.09655797699388   -2.07348671123969    1.87370607251263
H           2.00764689706751   -1.95602779748765    1.59113213677619
H           0.83374205583244   -1.21783816308615    2.25541737181904
O          -1.91264468880578   -1.59655574053440   -2.65094136328517
H          -1.64669559633918   -2.29343680852878   -3.25383320019210
H          -1.57719080779920   -1.84556628617744   -1.77785177278572
O           1.69325943763370   -1.16166109936567   -1.89962217536280
H           0.50382452925933   -1.79394823273593   -1.02707640120154
H           1.17376195776904   -0.52528063786396   -2.43783776361719
H           2.09197498483838   -0.62792102369872   -1.19546721392247
N          -1.22378189545418    2.77519207839232    2.37358232708316
H          -1.28189473354234    3.50336642743746    3.07295207318697
H          -0.98550046989824    1.89269393845730    2.81842504044965
H          -2.11991263316375    2.68354359154757    1.91407998258507
