    26
        -50.46582130  Gyration_radius:  2.52377106786 Dipole_moment: 1.966
 S          -1.35023962009139   -1.32419261709720    1.05811224960204
O          -0.70320662789397   -0.14272375643753    1.61501565949982
O          -0.38895764334672   -2.18090623110394    0.38098154500917
O          -2.52675874823276   -1.02217081993852    0.27424225467562
O          -1.88019289212878   -2.16047842795970    2.30354603832982
H          -2.82332798016805   -2.14802876857693    2.17821498570397
H          -2.27217499929078   -0.00715811336069   -0.98217801335715
O          -2.01491378325264    0.60182123423442   -1.71521567768249
H          -2.76742602999050    0.64477807400251   -2.30722137747366
O           2.58268100044547    0.17117100909589   -0.86959585692564
H           2.37549203206681    1.12322969000648   -0.72109159059281
H           2.21391598334183   -0.46398109451263    0.38727858129099
O           1.74002321608488    2.62669233765626   -0.32082256049880
H           0.79129031617184    2.50591199044744   -0.06736299563837
H           1.75776101600454    3.35125961248974   -0.94663664744663
O          -0.81693019422684    2.18089056719504    0.22186448058619
H          -1.25711918041449    1.84039235821121   -0.57189600638908
H          -0.83100294953422    1.43877651748753    0.85062609350155
O           0.34123358681752   -0.84185396388275   -1.89208015272604
H           1.85143395288455   -0.17579605842175   -1.43211028710464
H           0.06091089028098   -1.45880109085216   -1.19609576655171
H          -0.40904917799836   -0.24105772956587   -2.02150643744136
N           1.74413857475477   -0.96333859144984    1.26281952512451
H           0.97781666735929   -0.35825990462072    1.62850918174483
H           2.41201315382537   -1.22622491908652    1.97838776874847
H           1.19258942651831   -1.76995128397683    0.90421503602810
