    26
        -50.44964773  Gyration_radius:  2.66686495729 Dipole_moment: 4.498
 S          -0.72442830399681   -0.91950586968793   -0.88269955860147
O          -0.04016712016750   -0.83706691744473   -2.13206424169043
O          -0.95945374026771    0.34632215859695   -0.22818610559459
O           0.05362323631011   -1.83506648143470    0.09675199850166
O          -2.04008550579900   -1.66862352574148   -1.05574441565724
H          -2.49099000648617   -1.76195062514844   -0.14450491645303
H           0.99117967830174   -1.48062085067869    0.20249184615202
O           2.42573412605673   -0.87883579327105    0.25571586118929
H           3.07039546660137   -1.57577009225391    0.39209904942695
O          -3.24210712779006   -1.79263152397955    1.17907686263080
H          -3.02023884474626   -0.91783780140901    1.62305274617445
H          -4.18288389015885   -1.77724665458248    0.98921396329826
O           2.32349213018738    2.55986409193981   -1.51347687892440
H           3.08597802235531    3.09260892337550   -1.28377145757071
H           1.86032852922240    2.35809350901872   -0.66942919002312
O           1.20889033169942    1.63015206786497    0.75236745472430
H           1.76374350911501    0.85079321709104    0.88112843191634
H           0.36541909048711    1.28836727605237    0.40610156115966
O           2.55474569054485   -0.04648732888485   -2.15144317700592
H           2.55973721220825   -0.55078797586390   -0.70346944885856
H           1.65898042850363   -0.32324514107687   -2.41049587223953
H           2.51671146210816    0.93277562903801   -2.08459740274405
N          -2.56905779881882    0.58688805196478    2.10547372135911
H          -1.96604100902041    0.73250081521162    1.29531586774775
H          -1.98394678320282    0.62613507826998    2.93042978520377
H          -3.21955879324722    1.36117576304973    2.15066352587798
