    26
        -50.46582130  Gyration_radius:  2.52376968247 Dipole_moment: 1.966
 S          -1.06982215177609   -1.41221354391404   -1.24793694980260
O          -1.07224160168222   -1.97343733175541    0.09431435187407
O           0.21521615735358   -0.79970100076426   -1.56119708951473
O          -2.20084642738008   -0.55806306133451   -1.53265022563886
O          -1.21842730750297   -2.64797539556896   -2.23894797264220
H          -1.97780817584083   -2.40869031263320   -2.75996708861701
H          -2.18311756105468    0.88372350170619   -0.76173139031126
O          -2.08434661995103    1.71995453858790   -0.24659542677710
H          -2.91983908925795    2.18356862657709   -0.32147151864952
O           2.30707364550374    2.08329312569276    0.60644659122269
H           1.67272046030600    2.02243045163568   -0.15036827006045
H           2.33218929519763    3.00671998429519    0.85861821733579
O           1.56734754335831    0.12129664316887    2.23252827973021
H           1.91115051843858    0.89284007426826    1.72466233749557
H           1.63420423850239   -0.97789032543520    1.28041290098663
O           0.47391350286029    1.88687681410458   -1.29944266141163
H          -0.40001339026501    2.07001452353888   -0.92200034915103
H           0.44507094439297    0.94637586528106   -1.54622666779310
O          -1.06129650840444    0.16499780232733    1.80314918608202
H           0.58871039278633    0.23539931735908    2.25997567011293
H          -1.41645153191046    0.87230045692837    1.24256585027026
H          -1.19916778187262   -0.65557096174406    1.30189773110881
N           1.49687841292761   -1.75436577266829    0.49627312133420
H           1.37805901794801   -1.28680464944196   -0.42799379072984
H           0.54835357643096   -2.16356520922859    0.62392416245659
H           2.23249044089752   -2.45151416098683    0.49176098108268
