    26
        -50.44594761  Gyration_radius:  2.6488935276 Dipole_moment: 9.138
 S           0.12118061558973    0.87182153928559   -0.57512935837759
O          -1.11895455815615    0.78901356179767   -1.28421392126634
O           1.25281596458873    0.28477824082664   -1.22529053744846
O          -0.05352766461429    0.21127835729758    0.83036864825004
O           0.38592613743611    2.32790596511459   -0.19991314644305
H           1.28230697769960    2.38504571044730    0.27413389798347
H          -0.25474001278836   -0.77430057065500    0.67488635141515
O          -0.51644695705125   -2.23253931237476    0.32149889330670
H           0.00490669106147   -2.85180231987017    0.83591496641771
O           2.50792823315891    2.52926817668834    1.18824893440799
H           2.15717787498856    2.11538102860063    2.02584392701441
H           2.66099152264579    3.45888222648663    1.37212800334398
O          -2.98972700975457   -1.22263762016806   -0.73992248749959
H          -2.54747926156592   -0.36511817450098   -0.81516655582538
H          -2.39267697315952   -1.77885280646154   -0.22792035315103
O          -1.75182099371007   -1.18283803215304   -3.21889806696331
H          -2.43375621250288   -1.44908774826780   -2.57844731006171
H          -1.54599159930668   -0.27193802981093   -2.97438375151986
O           0.42740264663002   -2.15423328834284   -2.03375139568384
H          -0.16025327669493   -2.29504688588502   -0.63857849077357
H          -0.33482171563042   -1.93000762829861   -2.62080491194156
H           0.92485609076192   -1.32472802402007   -1.92763635701301
N           1.26837348736463    1.37031781652505    3.24604268500639
H           0.64625146935589    0.86870782883132    2.61776012044102
H           0.69834550971461    1.93249497541861    3.86547937684185
H           1.76173299391460    0.68823503349500    3.80775085954610
