    26
        -50.45176899  Gyration_radius:  2.55052414551 Dipole_moment: 2.573
 S          -0.00342329556902    0.81131680402622    1.07586514172472
O           0.91900079768588    1.86510213975595    0.80547699670998
O           0.51773456495179   -0.52379947255161    0.83962153898093
O          -1.27502074133919    0.98742058175947    0.21300022953237
O          -0.53734240911477    0.91267854766638    2.49232374945713
H          -0.92160818805139   -0.01859625237794    2.71782670655743
H          -1.05282229004899    0.83327323920372   -0.75721665314154
O          -0.51484829367226    0.53612981563287   -2.19830995746333
H          -0.46765535628999    1.33305296171603   -2.72910854199046
O          -3.14823517084736   -1.88778926725647    0.94604563835931
H          -2.51144957923885   -1.88979343131101    0.19530671790630
H          -3.58686505663388   -2.74020285998215    0.93304152636955
O          -1.28019826495845   -1.46703542157547    2.76428855911400
H          -2.07853407372402   -1.59242241809361    2.18779065919133
H          -0.53042031544774   -1.79673249082865    2.25491192762850
O          -1.14555924523492   -1.92124486888175   -0.81792838220718
H          -0.45661728845545   -1.53820121022727   -0.24845449135487
H          -1.17825733768345   -1.35820224057030   -1.59765112967411
O           1.86230572351986   -0.19865498423448   -1.55550899878116
H           2.43351512080241    0.60274779105898   -1.46280764198688
H           1.64122181060420   -0.46539576994223   -0.65114368650320
H           0.43806403510913    0.22792455958210   -2.05642526042125
N           3.16377278708344    2.09968024806237   -0.99070528718567
H           2.46248774884269    2.23750626735672   -0.26456645119452
H           3.18743033015456    2.93519774252559   -1.56172272851111
H           4.06332398744101    2.01603997942474   -0.53395018084234
