    26
        -50.47294862  Gyration_radius:  2.44382183395 Dipole_moment: 1.544
 S          -0.70011988663632   -1.84343019068982   -0.48598715867091
O           0.67903237273100   -1.84050394621376   -0.94864800722002
O          -1.46764633224634   -0.73711484342006   -1.03138475952350
O          -0.79328682596419   -1.95148465289223    0.95607718749816
O          -1.36905491473399   -3.15357439460617   -1.07241208548665
H          -0.92788855429598   -3.82573925164995   -0.56537472400137
H          -0.11347505437366   -0.84144846134067    1.88788255903308
O           0.38087890682421   -0.17967435266922    2.43819401814580
H           0.16982146172089   -0.38927112749196    3.34919793602070
O           2.37260299516597   -0.45775367172384    0.55447868215525
H           1.85315576872953   -1.08603806960122    0.00669248836995
H           1.89123771777865   -0.40311970472280    1.39604116444385
O          -2.66499789747953    1.16578095034096    0.36333232300475
H          -3.27303704212926    1.56003335229497   -0.26382034622176
H          -2.27949757524120    0.38576994168633   -0.08828277931607
O           0.35166767776565    0.27241712431543   -2.61271155893238
H           0.99076789793294    1.26444754263571   -1.50552455980789
H           0.88845493996478   -0.52502348868880   -2.51322282726667
O          -0.33561859550289    2.16723448616184    1.22227288074655
H          -1.24415276416793    1.93611875960282    0.93371139288099
H          -0.07585115454408    1.43034054227668    1.80605976488016
H          -0.48313052241382    0.00989425840410   -2.16926140890705
N           1.43977666302095    1.68901942000576   -0.64632133509020
H           1.97349834767742    0.89832349007907   -0.17047479513536
H           0.68647769575417    1.99465856768930    0.04934015667945
H           2.05038466480087    2.46013773051181   -0.88985418828616
