    26
        -50.47294828  Gyration_radius:  2.44346369753 Dipole_moment: 1.540
 S           0.46584997837247    0.90413005162103   -1.75714587771876
O           1.46710473513544   -0.13986538378621   -1.60241268175378
O           0.41727166299413    1.79671771669545   -0.61207247540133
O          -0.82997976402484    0.36922762218423   -2.12381958469352
O           0.93489380292995    1.80131902299732   -2.97489128652478
H           0.79304982560114    1.20787550653514   -3.70373003157295
H          -1.56210170296370   -0.68700122258805   -1.16909735454452
O          -1.95657521243002   -1.39361347571360   -0.59453423019371
H          -2.81693769137126   -1.58478910108932   -0.97106922571309
O          -1.68481870675368    2.20329366094668    0.94167822046390
H          -0.97443481252168    2.07887506929384    0.27766860718841
H          -1.46888433115391    3.01019453881264    1.41148827108564
O           0.61788842017284   -2.36327425261312   -0.42925916598344
H          -0.34306710405156   -2.29728160516875   -0.55130426801654
H           0.99205377083207   -1.63695945646723   -0.97431258829252
O           2.41240199749506    0.80203814743071    0.75184509471310
H           2.69301065990180    0.30087059504830   -0.02561398786867
H           1.52735626987333   -0.28361021581729    1.56203598279452
O          -1.62045553013108   -0.29832652860982    1.89244631706293
H          -1.88859438881599   -0.76215625423595    1.07736497328307
H           1.71075290282645    1.37615024268894    0.37748283702784
H          -1.71555895453016    0.65224576973372    1.67001841948240
N           0.88340501905203   -1.07326252013389    1.84814513598433
H           1.22065784627779   -1.54302039914313    2.68024949331461
H           0.83757523883923   -1.73447500388966    1.01319361822303
H          -0.11186392149728   -0.70530250459937    1.98564579750385
