    26
        -50.45176900  Gyration_radius:  2.5507200189 Dipole_moment: 2.574
 S          -0.20333922270963   -0.16646225866632   -1.32187207940354
O           0.58025962917827   -1.28754197204355   -1.72616646481985
O           0.51756214135259    0.82633367934361   -0.54430293296664
O          -1.41389815125087   -0.64181758924679   -0.48449584828546
O          -0.85802163901402    0.49400325408819   -2.52052060540382
H          -1.12424904436689    1.44236770948446   -2.21170502370675
H          -1.09520971426001   -1.00868499647832    0.39778838696704
O          -0.40817792223954   -1.51186788007205    1.71245495837629
H          -0.43213712653610   -2.46783188866257    1.78027439681395
O          -2.91636224284262    2.36339283369140    0.53385995361015
H          -3.22641427897622    3.13085270443650    1.01760657944079
H          -2.22737064846389    1.93910392056093    1.09464112119802
O          -1.27830544283651    2.74650121605379   -1.50154305742416
H          -2.00218688050257    2.63506435381132   -0.83147582032087
H          -0.45118730431161    2.71665589311642   -1.00623499442712
O          -0.79388738128056    1.34960291067991    1.79486169740848
H          -0.21390809266134    1.24357634147400    1.02148466009894
H          -0.84357473526844    0.47872165281409    2.20119999441199
O           1.98994067597336   -0.75656300190680    1.18119307480401
H           0.56433207302974   -1.25489410682714    1.60623534282822
H           2.43317005705667   -1.45037183840082    0.63412839252918
H           1.73718760958437   -0.05837199459129    0.55949863261617
N           2.90520902835305   -2.56974311910683   -0.59920036144456
H           3.76834647386063   -2.34542879519094   -1.07827401824833
H           2.13602597588050   -2.26941268195005   -1.19607082038538
H           2.85619616319999   -3.57718432651357   -0.51336517425592
