    26
        -50.44982931  Gyration_radius:  2.46276728617 Dipole_moment: 6.410
 S           0.72756275541702    1.41660920754398   -0.79718454353735
O          -0.50280494769250    0.73707286906156   -0.40517615805409
O           1.09220012868087    1.22259614603070   -2.16813962112264
O           1.85320791606282    0.80442932670756    0.13448493439289
O           0.67572557265415    2.82873793099853   -0.37505600530007
H          -0.16329142158197    2.90392878194923    0.68475175345936
H           1.88232422157978   -0.16733590354898   -0.07732378811729
O           1.71257425909345   -1.72955830437680   -0.42753087435888
H           2.52831964555729   -2.14236914397321   -0.71588275897636
O          -0.19733841480588    0.32082753236588    2.08254659770155
H          -0.38472729594889    0.34337831104989    1.09695209449908
H           0.76187836484692    0.27470861646453    2.14201512580837
O          -0.59659162491830   -2.36825732053864    1.04851633628249
H          -0.69187953168835   -1.60059874105713    1.62446079634912
H           0.26740192150455   -2.27349548477966    0.61925095629067
O          -2.05871418121229   -2.02937042446068   -1.23382304721239
H          -2.26449926171500   -2.92225664538230   -1.51639409327178
H          -1.63446007946545   -2.11480811426838   -0.35507194547695
O           0.25130904439205   -1.31018730004423   -2.46678104024827
H           1.13372104427489   -1.63641072873016   -1.26709856046632
H          -0.66338355317131   -1.39815610170097   -2.12052058094077
H           0.43684870316239   -0.35554532681217   -2.53776312996978
N          -0.88925017706779    2.84234255368053    1.58033394152006
H          -0.76321664328315    3.61770028866161    2.22215834917931
H          -0.68002951696075    1.91001825234877    2.02300994084942
H          -1.83288692767473    2.82599971279309    1.20526530074076
