    26
        -50.45875111  Gyration_radius:  2.52120871296 Dipole_moment: 10.926
 S           0.05681846539739    0.58185705570849   -0.94248279890731
O          -0.40404494996052    1.77653560737464   -0.29472929256138
O          -0.93385566643242   -0.49363253240020   -0.93406752331490
O           1.30494118450787    0.01845127059657   -0.15605007642668
O           0.59418044393100    0.79626915487550   -2.28954082394577
H           1.42436347193838   -0.29445206856411   -2.49140238241449
H           1.03312275171446   -0.07681663826576    0.80210415304372
O           0.48918277455071   -0.31079838558192    2.27167777539050
H           0.73964883572299   -1.15131441751029    2.65849930034982
O           0.24822316273871    2.53953208748714    2.30126670981761
H           0.49276057046481    1.65782885942994    2.60330335405384
H           0.18565848889665    2.46772890866174    1.33693932150928
O           0.01296126991432   -2.75446159338204   -1.74027466340522
H          -0.65414347120227   -3.14658009224395   -2.30667181431598
H          -0.40941298119940   -1.93777085907460   -1.35675523405530
O          -2.42742631105974    2.20057475657769    1.57901004500842
H          -1.72744463617937    2.51328283728580    2.17525834614642
H          -2.02033433044519    2.25523269884584    0.70310750041043
O          -1.96221002044256   -0.43028668794713    1.55519345099669
H          -2.30882122502123    0.48684228924198    1.66550588371094
H          -1.77408347555288   -0.51706956143511    0.60330519210633
H          -0.50940424692422   -0.37097935722760    2.08992006757818
N           2.03174712232713   -1.24550032558899   -2.48864868527385
H           2.66771993379139   -1.16526537969510   -1.69896113898174
H           2.53114237754365   -1.39651440576798   -3.35891902647774
H           1.31871047098959   -2.00269325140371   -2.28658764004159
