    26
        -50.45785154  Gyration_radius:  2.51780890623 Dipole_moment: 10.756
 S           0.87952576967630    0.14831339779095   -0.74406037793887
O           0.59329771932326    1.38171081304088   -0.01481617786575
O          -0.01515672915380   -0.07781216328641   -1.84273280805292
O           0.69471827084437   -1.01785535374175    0.31459948368796
O           2.29896463423888    0.04041360427270   -1.08677385763314
H           2.91751837455100   -0.26645546937708    0.11473132372621
H          -0.28117045731649   -1.12158839631268    0.48038603940518
O          -1.85286140797255   -1.12378053695142    0.80532702889261
H          -2.14324785962167   -1.28637068069802    1.70392767008146
O           1.81174293828367    1.39167347222821    2.26042937731643
H           1.11445039312970    1.33065887959736    2.91566401367113
H           1.35241174719134    1.52588832379447    1.38821082370454
O          -2.55605079341976    0.99580686934665   -2.33994209672188
H          -1.60173666021240    0.92563724282082   -2.48012462042936
H          -2.85703895546101    0.07187600701666   -2.36198649916218
O          -2.24449422698993   -1.74200797257746   -1.94680579529400
H          -2.32985824012487   -1.79672568932961   -0.98793698060458
H          -1.36876014469755   -1.35570245419615   -2.09582386842636
O          -2.07680992189295    1.36198283003442    0.25810964678369
H          -2.42068494452998    1.37009997438860   -0.66707701956418
H          -2.04469255367431   -0.14393814538471    0.61329683595037
H          -1.12495899260520    1.55520837833903    0.16752668442608
N           3.26860384460232   -0.50488236827716    1.16031868049977
H           2.93604448418373   -1.43904478010093    1.38119104534559
H           2.77258535126129    0.21238172017206    1.76040684026430
H           4.27765838043521   -0.43548749261431    1.24395461794234
