    26
        -50.46679034  Gyration_radius:  2.45317244999 Dipole_moment: 3.993
 S          -0.03566210122262    0.53300154847897    1.33047021288455
O          -1.40674842339001    0.59555785140334    0.88059127461958
O           0.79278051198569    1.52534961001686    0.64754697385543
O           0.55078348550526   -0.80557044293898    1.18452995956233
O          -0.03458476808141    0.87049361706636    2.85258620634943
H           0.85597464536264    0.61080791458446    3.16463694410946
H           1.23477655553605   -0.61191149757156   -0.37075994235972
O           1.58933484648425   -0.44816819247492   -1.26547671388541
H           2.16401299855688    0.31343412467805   -1.16219758907776
O          -2.18872816125288   -1.03906150952874   -1.15777918065980
H          -2.07671615051022   -0.49905706985060   -0.35617382371219
H          -1.71824169208770   -1.87137349662034   -0.95975985447929
O          -0.33145364851084   -2.87112240293495   -0.38173326180336
H           0.37932988522973   -2.85277888312577   -1.02741267999931
H          -0.06487410433346   -2.25428937777373    0.32019998676907
O           2.26396827038951   -0.40596015921904    3.15042787896956
H           1.83992384191396   -0.75120962186648    2.34142403719170
H           2.27400170449347   -1.12627147509193    3.78505299996788
O          -0.56908985053742    0.29308728435716   -2.71647412426268
H          -0.77937999217077    1.50598958757544   -1.92710639782633
H           0.27962197849705   -0.05392272718477   -2.36944429715028
H          -1.26510603684953   -0.28484807844029   -2.29686606670477
N          -0.91811482740674    2.27291047426937   -1.13559434076130
H          -0.10994935308598    2.13811945678085   -0.45387374251841
H          -1.73604016555073    1.99678934320069   -0.58599620659097
H          -0.98981944900015    3.22000414221654   -1.49081827255575
