    26
        -50.45127723  Gyration_radius:  2.48023300459 Dipole_moment: 5.942
 S           1.24768051766271    1.13927346792147   -0.77013893817942
O           1.77485057662211    2.26990839133883   -0.07910613393900
O          -0.19052089969874    1.02719328085940   -0.75067101318107
O           1.83624379326354   -0.18592090605046   -0.18700429797032
O           1.75558986780784    1.07405839943785   -2.20006438803962
H           1.43015856529640    0.12257016297468   -2.58388808549908
H           1.51791211658850   -0.32781674186470    0.75691931112154
O           0.92282597037793   -0.60572731603632    2.17520845014602
H           1.37674770062133   -1.31437317379938    2.63470883323688
O           0.02040622185094    2.08577220533551    2.03340761383234
H           0.57942221640122    2.37756381268053    1.29849005070015
H           0.43019728689993    1.27703884429680    2.36423805335401
O          -1.38534226223654   -1.20090741747485   -1.28516600730588
H          -0.97812524541181   -0.32646847608865   -1.05570073881475
H          -2.29817925017883   -1.00253311086432   -1.50435759301333
O          -2.43685029594475    1.03999890241029    1.60816832370694
H          -2.87718690501883    1.38016085690170    2.38877019063441
H          -1.57276425575461    1.50580913460577    1.56973195170703
O          -1.41076503602147   -1.42212227234842    1.48153939759872
H          -1.90394581733349   -0.57478653135291    1.57693009374285
H          -1.37317468759185   -1.57035215147521    0.52119685733033
H          -0.00164497590848   -0.95854027494065    1.94539324283314
N           0.96591674001674   -1.21285575062184   -2.94506505521668
H           0.84524916399284   -1.35554415741415   -3.93887022724677
H           0.07830171391822   -1.37050346613932   -2.46425819513816
H           1.64699718978651   -1.87089572226422   -2.59041168641585
