    26
        -50.45127725  Gyration_radius:  2.48025672525 Dipole_moment: 5.939
 S           0.67219758687528    1.18143330725296   -1.26529689418079
O          -0.21411065110872    1.26115525314854   -0.12978261029652
O           0.04853460026250    1.37500710806595   -2.53311925470795
O           1.39111056945192   -0.20524315932460   -1.21141888475393
O           1.84901489181049    2.12244150720278   -1.07419573176022
H           2.33711452528054    1.80157940321885   -0.17032486419970
H           0.71855606666152   -0.95268621572971   -1.24973072996038
O          -0.33492658442001   -2.10545298984539   -1.18491386648007
H           0.05544833452036   -2.97136252124146   -1.31604676423403
O           0.44065088591952    0.29442374347375    2.17556219099166
H          -0.12655472249770    0.69596492038422    2.83721294870066
H           0.13250646867975    0.66682120601026    1.30986757937872
O          -3.02092434058573   -0.18717076669937    0.66597744394566
H          -2.67446375259108    0.05162221360397   -0.22175887619788
H          -3.92342595850055   -0.47552298534852    0.52011736144997
O          -2.19909465718635   -0.08541278167949   -1.90815315534827
H          -1.71342468719209   -0.91939288458635   -1.90369198826637
H          -1.56547775056137    0.58179474827499   -2.21001930237853
O          -1.04041999325875   -1.87237157625116    1.27290195478228
H          -0.62501045798897   -2.06561472927403   -0.21215156660167
H          -0.39400939374954   -1.27509495532626    1.68650958427254
H          -1.84241018989435   -1.31382922928303    1.14970782080154
N           2.91664367403367    1.22184728126599    1.03724858776610
H           3.48807907240841    0.43966084268894    0.74690452020885
H           2.14715255902024    0.86953373063172    1.60955351979417
H           3.47724391463806    1.86586953936356    1.57904098724476
