    26
        -50.45958870  Gyration_radius:  2.42009124135 Dipole_moment: 7.264
 S           1.15543849907360    1.44151009442469    0.21109843370142
O           0.31930926419701    0.98574585481719    1.32231876927285
O           0.66990006845806    2.63871525141188   -0.41473264897519
O           1.42320638097259    0.34089710754547   -0.70634885849293
O           2.56378133787358    1.80605687887285    0.84359524499082
H           2.44833352305605    2.74168811540229    0.96361302483032
H           0.13442109282102   -0.17159805624455   -1.55122491609376
O          -0.68156554138912   -0.49374208896138   -2.00332190783160
H          -0.43047734064353   -0.72108240477231   -2.89950994079728
O           0.03520756287774   -1.50321536134097    1.65594746255792
H           0.84052616927422   -1.90527614808883    1.11649592519483
H           0.18925095567288   -0.49548709733588    1.63655157860553
O          -1.80625642771895    2.01110494664694   -1.32848227153896
H          -1.58364829049264    1.18371419499057   -1.77703880591449
H          -0.95699589761878    2.40215112050531   -1.05781756707952
O          -2.44688806175646    0.92950048157687    1.03087239316502
H          -2.45943222031796    1.43258970736894    0.18730541477708
H          -1.56579787405162    1.10053197914894    1.39483380130714
O          -1.96910147059366   -1.48469497153114    0.20189280058080
H          -0.86403215400909   -1.60672453950987    1.05151431426149
H          -2.34264055124358   -0.61879381330761    0.54761875751414
H          -1.62447379222882   -1.26795038141809   -0.68281168395781
N           2.03728740363958   -2.20045426243006    0.23633992694742
H           1.94848923227866   -2.93234397942582   -0.45611189508294
H           2.91883529360640   -2.31900537989257    0.71750414823229
H           2.04732284828984   -1.29383726847649   -0.24010148023157
