    26
        -50.45958862  Gyration_radius:  2.41993261642 Dipole_moment: 7.274
 S           0.91744148943335    1.32950559486650   -0.91550893891080
O           0.49330948201703    1.53327537604566    0.47021819476387
O           0.09757545157389    2.01903358638404   -1.87103638371017
O           1.10274045270747   -0.09097853681884   -1.18517152054608
O           2.36670581852591    1.96498966562332   -1.02745274324232
H           2.13938932189907    2.82357900652489   -1.36537597099719
H          -0.26301415888628   -0.96874906172073   -1.20837164648241
O          -1.10673700605304   -1.47825738959170   -1.15699916744147
H          -1.06859332659261   -2.14741600464555   -1.84157362544738
O          -2.20340669292755    1.33670436950232    1.12824300468116
H          -2.52129205773506    1.31934462762372    0.19901364259699
H          -1.29770694725202    1.67315157546379    1.06155175215565
O          -2.39714159171181    1.01148881172185   -1.51830153224461
H          -2.17214416327919    0.07105089788096   -1.53531854961981
H          -1.58143802100321    1.48337962889980   -1.76176839422791
O           0.71724132167977   -0.40130244666553    2.08063519622110
H           0.69327227856885    0.44354442866651    1.51026124043134
H           1.40782003669469   -1.02681457782060    1.59744166829127
O          -1.57526024200460   -1.15278965623842    1.52152683713701
H          -1.51947507090741   -1.43622588262875    0.59141030309941
H          -0.27947389550529   -0.80866622543652    1.92404444015664
H          -1.98006384206427   -0.23458869294897    1.48282682626009
N           2.36412891003924   -1.73772049117752    0.66321347269005
H           2.09302856962753   -1.22404533987166   -0.18049197322971
H           2.22568202180774   -2.72664204241464    0.50242532949359
H           3.34741187135310   -1.57485124122226    0.83455851812232
