    26
        -50.46577284  Gyration_radius:  2.41266513422 Dipole_moment: 4.009
 S           1.04475834753252    1.06210627973768   -0.26471565696949
O           1.49150142333599    1.57887332439221    1.00348931505600
O          -0.38263040884143    1.29170355662893   -0.49117289753238
O           1.22657871945021   -0.51191708168601   -0.23164025821814
O           1.84445101787849    1.46173228224546   -1.41499767739207
H           1.60353024360777    0.38123330859019   -2.36760180497279
H           0.91095968399137   -0.80370893414494    0.66832252702849
O           0.23498405901849   -1.14660486822790    2.06909717155679
H           0.69607466826200   -0.63276020109851    2.73847432590907
O          -0.08962760016219    1.61654504983265    3.11875154297358
H           0.51228174226469    1.65231188269996    2.34114032779690
H           0.06864407388446    2.42631474782126    3.60482258914753
O          -1.70290593077891   -2.03062540017811   -0.12106185344986
H          -0.93430969755469   -2.30157731829940    0.38869228033491
H          -2.13391520788150   -1.34195363006045    0.40289309572428
O          -1.16905898459536   -0.46637966304287   -2.25853253593915
H          -1.42031718305697   -1.17955537756544   -1.63347560288040
H          -1.02277338860144    0.31411989419740   -1.67417896005064
O          -1.86649337500245    0.34372163134329    1.46863538846198
H          -0.63136989889337   -0.67815146796420    1.95285670925037
H          -1.68438230469042    0.93592128521010    2.21312904652027
H          -1.42064098958194    0.77432825988092    0.70334717389569
N           1.30417778001028   -0.49317737785577   -2.95229533590847
H           1.49839103941258   -0.36889310333743   -3.94060633993415
H           0.22936210050702   -0.58369883849342   -2.74806747758630
H           1.79273007042862   -1.29990825061898   -2.57530509280643
