    26
        -50.44824551  Gyration_radius:  2.63839908324 Dipole_moment: 4.531
 S          -1.25375958539579   -0.02136692480154   -1.19780571975152
O           0.00885086207643    0.60407639745859   -1.49650531179854
O          -1.98340370559270    0.54563590377577   -0.10856838950340
O          -0.99581081671657   -1.53297144936655   -0.93562300133838
O          -2.11753323698982   -0.07294945666001   -2.45696516636781
H          -1.45413114487531   -0.35015773611145   -3.19937101567787
H          -0.56779213813615   -1.67447188312667   -0.03242175418259
O          -0.00564978769247   -1.83347622939772    1.41265969861099
H          -0.27127585190971   -2.67635188709978    1.78557650206645
O           1.64248225526867    1.83566020137522    0.31009760473327
H           2.17674212666630    1.06643508038081    0.57739689601079
H           1.04687670761115    1.50917337084300   -0.38355642461577
O           2.39341052977852   -0.38671669619950    1.74131741338418
H           2.12279998567880    0.12330226390537    2.51110323745854
H           1.66590407589449   -0.99897759489748    1.56022684912585
O           0.52628215273209    1.92464954619107    2.70554715223264
H           0.91808032509652    1.97405965311952    1.79462083064512
H           0.23147007364196    2.81111521051100    2.91529291894794
O          -1.36030170066782    0.04174025182727    2.47139516252091
H          -1.79481867857283    0.32600799519377    1.64880102735387
H          -0.54165964068353   -1.11733392956936    1.90992376067753
H          -0.70187662128003    0.74593001402927    2.67139156896459
N          -0.16609218110875   -0.68243129524484   -3.98279865803039
H           0.07285525753362   -1.66471717940058   -4.00132565877949
H           0.43581071566121   -0.20606161349109   -3.31607294178131
H          -0.02745997800160   -0.28980198314740   -4.90433659082069
