    26
        -50.45088140  Gyration_radius:  2.63514359921 Dipole_moment: 7.366
 S          -0.65140352926937   -0.74191334299788   -0.21833384941605
O          -0.67104638074949    0.69533712949007   -0.36269018345971
O          -0.88705493876756   -1.20454955193410    1.11380372307021
O           0.69557174024022   -1.28035798748786   -0.74517853971749
O          -1.66087908684085   -1.37514670338632   -1.16548835973528
H          -1.46593042825937   -1.06398866866587   -2.12019347380097
H           1.43363159419570   -1.02855046989220   -0.10083617056147
O           2.46242750158703   -0.50035926351565    0.92169316104521
H           3.27869891203742   -0.20713599966643    0.51235324186335
O          -1.28976593860969   -0.50880685093918   -3.51738915998443
H          -1.18884881582729    0.48086392581518   -3.36679636508366
H          -2.10761401445747   -0.63732102964011   -4.00324326313889
O          -0.32949986938672    0.25398055154061    3.49667453228739
H          -0.96814986837513   -0.10892555620766    2.87111135862201
H           0.26980464631194   -0.49320447944048    3.67494325501983
O           1.09951377419590   -2.02619635917527    2.92315891153781
H           0.34199978470686   -2.05354418058741    2.32256602830107
H           1.83364339415942   -1.69504602474993    2.39383196375096
O           1.02922863202757    1.50530254119506    1.58520174919108
H           0.56819787020302    1.21182843581023    2.40920244362409
H           1.98338920576523    0.33625874169607    1.24808324170641
H           0.36228139833759    1.42513329037795    0.88285436792150
N          -1.07649497480781    2.03466312321129   -2.84824405580842
H          -1.87308648396201    2.65866848706011   -2.87698235089891
H          -0.26429979066633    2.55474040632939   -3.15512001545198
H          -0.92431434378857    1.76826981576632   -1.87498218088492
