    26
        -50.47250309  Gyration_radius:  2.48736838604 Dipole_moment: 2.883
 S           1.62532219414733    1.41884718115129   -0.70017832305488
O           0.81724012472472    0.45732595907664   -1.42554331058446
O           2.40792824792030    0.78769586181766    0.35548424904179
O           0.87016463955475    2.55653883916135   -0.21137975746359
O           2.66608645202358    1.99679927915268   -1.74543414857357
H           3.05072910874956    2.70899792377395   -1.24603047202577
H          -0.37070353110294    2.13198871888912    0.69361998764010
O          -1.17546655322910    1.84779996034423    1.20137947329574
H          -1.39425661329984    2.57963996154501    1.78002982588521
O          -1.83341770866835    0.75512175153338   -1.27310628189969
H          -1.88098509301078    1.28241632395501   -0.46211014711893
H          -0.87988183189992    0.72808331823775   -1.49037926049685
O           0.44696804393970   -2.21104237391257   -1.25349676674245
H           0.63823249229261   -1.31187048029575   -1.57875228809024
H          -0.50939897580982   -2.20932375254998   -1.06528709969034
O          -2.13194127669432   -1.69150030120901   -0.43093350804652
H          -2.96598568389030   -2.05963476878141   -0.72306491646365
H          -2.08317953378826   -0.76545992168782   -0.80850796601216
O          -1.08745658194787   -0.77982131303071    1.94879786246279
H           0.40654383860752   -1.20772967538131    1.58519109810207
H          -1.14583002095606    0.18007618736346    1.78279758822426
H          -1.58602769686925   -1.19669264960316    1.22296623681754
N           1.32165382210984   -1.45942504641475    1.10787211717690
H           1.90271480191031   -2.04791857039485    1.69344510028816
H           1.82368000169956   -0.55945582103493    0.85461045577335
H           1.06726734373001   -1.93145660168176    0.18801028133937
