    26
        -50.44835627  Gyration_radius:  2.64747369978 Dipole_moment: 5.189
 S           0.82546647093179   -1.00483053479109   -0.78025432895336
O           1.07239690681506    0.10103744096961   -1.67099416293309
O          -0.53927212102001   -1.39722601307461   -0.63648074537368
O           1.43178893025872   -0.66360788604418    0.60435436687198
O           1.67543932212556   -2.20689945151319   -1.19984162824398
H           2.58911615477775   -1.80077751275804   -1.43976435315408
H           0.92845611117047    0.09729812687027    1.06104156731194
O           0.19932938508964    1.24730994637990    1.73562607542162
H           0.57572306222907    1.39926087537786    2.60456655039446
O          -0.56977382678149    2.11082533479452   -0.84808733763836
H          -0.04417962647179    1.44400953809094   -1.31898937365086
H          -0.22997219225015    2.11157830927668    0.05585312733960
O          -3.10544383636204    1.43107675927470   -0.26660814031212
H          -2.20743636522528    1.62964585201843   -0.61451227854858
H          -3.60172887099650    2.24789542765097   -0.33628465303189
O          -2.12636069097024   -2.07384462364242    1.41639691659350
H          -2.95730052145238   -2.32111110126057    1.00551983945452
H          -1.50930580179658   -1.91022232736940    0.67831530489873
O          -2.20412320445198    0.52368791434252    2.09999568968827
H          -2.20135667644667   -0.45333095682177    2.00403089584041
H          -0.77582050377955    0.95462010123823    1.90305593672252
H          -2.65155746776558    0.85275389831144    1.28979586970222
N           3.72852169777633   -0.79441769194748   -1.78042624607184
H           3.07239534431217   -0.03919274547638   -1.96258696400234
H           4.30158964821535   -0.94853216405282   -2.59919341907971
H           4.32340868199689   -0.53700650584524   -1.00452853927709
