    26
        -50.46622920  Gyration_radius:  2.43307531476 Dipole_moment: 3.930
 S           1.58045873753223   -1.10002093551803    0.16429782419472
O           0.53696790999638   -1.60574972228722    1.03016822967590
O           2.00680321482274    0.24699524074798    0.54549767852380
O           1.28150468808421   -1.19354462153265   -1.24974313021719
O           2.83386312657484   -2.03507929695703    0.41894545398574
H           3.46467378388654   -1.75066102910460   -0.23477547222409
H          -0.28067154751064   -1.01574996616152   -1.76247496292648
O          -1.20843697528048   -0.86734816405075   -2.05772573888634
H          -1.32149621381645   -1.37404546064550   -2.86304296675628
O          -1.99312739444456    1.28194457950988    1.23130188656838
H          -0.77009314987903    1.01697001427658    1.91865656260128
H          -1.75396906674220    1.64729912957178    0.34000017595836
O           1.45131774148474    1.60669739570964   -1.68880482007568
H           1.74819577321291    1.24232297006936   -0.83605202503874
H           1.44010560320717    0.84871974309979   -2.28010023724186
O          -1.21919792765102    1.81306529041314   -1.22470071829529
H          -1.41379651019119    0.96003563270831   -1.63968876187616
H          -0.26486352336092    1.95513624049236   -1.38060780059450
O          -2.13973133233083   -1.26914124166954    0.50993857170575
H          -1.25576840031652   -1.57680953280669    0.76754532804306
H          -2.27967395779899    0.35606992650097    1.03713364286449
H          -2.09096053120026   -1.18488975876914   -0.45546496473516
N           0.18444240771544    0.62425222583034    2.36684705262071
H           0.33803508516849    0.94411747109016    3.31653205122851
H           0.98679967689466    0.83598466521258    1.73498105009603
H           0.13861879194164   -0.40657080573002    2.29133607080147
