    26
        -50.46577281  Gyration_radius:  2.41265924706 Dipole_moment: 4.010
 S           1.36895075128711    0.15843728386505    0.62577786556547
O           1.20837855646187    0.18926456832192    2.05696244606626
O           0.67720192945263    1.26357764100506   -0.03874867312640
O           0.67571639047077   -1.16379701802090    0.09405491885804
O           2.74158027262598    0.02171998937838    0.15724464514365
H           2.57528043031177   -0.59157002699160   -1.15776992236785
H          -0.18481419529204   -1.23966295646327    0.59243481297087
O          -1.58952777406698   -1.15453310077388    1.33831447609643
H          -1.40617260550096   -1.09870608984170    2.28062417973356
O          -1.00004086796759    1.09857968750245    3.18378350944229
H          -0.76265714240154    1.58455029600754    3.97394920383103
H          -0.14961266413892    0.78899398334781    2.79748986794012
O          -2.07022535177338   -0.45165165253779   -1.59593898824268
H          -1.98998371426624   -1.18308426395660   -0.97736816850544
H          -2.30053262943841    0.31922842447933   -1.05997659049449
O           0.27162667848218    0.53343416071826   -2.51567843407955
H           0.43182652557089    1.00002519910178   -1.66203862940772
H          -0.60457326923512    0.11115959658657   -2.38760895062827
O          -1.87587033964191    1.37031002339863    0.60264395494173
H          -0.93579352699311    1.46050025426316    0.32329922196947
H          -1.85506910321905   -0.23340742932099    1.08438982070167
H          -1.87766166977872    1.66027570081653    1.52673183619816
N           2.26734784151135   -1.03228537296446   -2.11009592033355
H           3.01364818255337   -1.00194236079659   -2.79713899305717
H           1.40336560571429   -0.42398932498827   -2.40768226097637
H           1.96761169930164   -1.98542723217150   -1.92765521825075
