    26
        -50.45202110  Gyration_radius:  2.47520822951 Dipole_moment: 1.185
 S           1.12282332040326    0.87983253130021    0.57766823661223
O           0.27640161973931    0.86068668396217   -0.59944015312509
O           2.38834652055052    0.24871932576366    0.39051312310831
O           0.35318867669950    0.23488642864096    1.74630127989597
O           1.30329328361315    2.31243633405127    1.05706251205864
H           0.38897561871401    2.64307646382384    1.37275262310059
H           0.21703977745703   -0.76295178805613    1.59972472001268
O           0.09374329612210   -2.25522621539933    1.30227790828286
H           0.37341557700680   -2.77321887122670    2.05958645678557
O          -1.01127075237151    3.11318677764381    1.70845433678694
H          -1.08776845954273    4.06247341097557    1.58646079543555
H          -1.58703957102732    2.69202268957309    1.01319507124252
O          -1.86145473363927   -0.90427470983494   -0.31650560065200
H          -1.57603255218609   -1.60289699172507    0.27966748853903
H          -1.06768532281736   -0.37997453186110   -0.49468369402195
O          -2.18765234581387    1.96090787746988   -0.32342421640938
H          -1.31692479720336    1.70332393073035   -0.67213048988080
H          -2.64300279086562    1.12065936863598   -0.18419980245279
O           1.93693998969794   -2.30051474532479   -0.46001754798139
H           2.35891980816236   -1.46085322174063   -0.21263245439218
H           0.81018638333202   -2.38257598147341    0.58866736346921
H           1.47034523064643   -2.11182615707340   -1.31252244241987
N           0.47652971566019   -1.38926013312417   -2.53390257039861
H          -0.48691003952563   -1.69995346559903   -2.48696931493265
H           0.75269193859872   -1.37103962145761   -3.50709533224487
H           0.50290059860263   -0.43764536868009   -2.17880828643716
