    26
        -50.45688874  Gyration_radius:  2.45342361291 Dipole_moment: 5.085
 S          -0.81411300211557    0.97774352693008   -1.34667017822668
O          -0.94061667598757    1.38496555444090    0.05399341358062
O          -1.74322554839463   -0.04486395998602   -1.73741238841832
O           0.57289803355485    0.66228682117963   -1.65878958165351
O          -1.18295669656903    2.27084520390174   -2.18583320336382
H          -0.60685747110442    2.94763177988840   -1.84395735940693
H           0.36320886720567   -0.86702670743431   -1.05823956560723
O           0.22049214424567   -1.75377720352188   -0.66185063250331
H          -0.20331650959311   -2.26416524024859   -1.35536083331110
O          -3.30448284729255   -0.17979783296717    0.38598131351813
H          -3.10240471393472    0.68588108082920    0.75111185242057
H          -2.87414094393054   -0.18373550784131   -0.49441746383428
O           2.05004738590307   -0.94659258987767    1.28950143844523
H           2.54886471573990   -0.26467237736503    0.75284463814731
H           1.64014100465332   -1.53625378541156    0.64021752135269
O          -0.05030051705400    0.15160405577049    2.08293913590019
H           0.89571105288758   -0.26404138719698    1.82745919780946
H          -0.34641789941582    0.73435150283812    1.30228591671689
O          -1.52224942421746   -1.76787162768291    1.49598853914825
H          -2.32740494842991   -1.30062985173524    1.15195638780797
H          -0.99509791112640   -1.99635010242174    0.70931830819475
H          -0.70791009306516   -0.68375945628997    2.00256968516095
N           3.07776778766510    0.88485983510478   -0.31863755752145
H           3.24234287556148    1.82176379357197    0.02598515194740
H           2.24632212447400    0.90644388131819   -0.91036996669934
H           3.86369921028692    0.62516061419218   -0.90061378961876
