    26
        -50.45688870  Gyration_radius:  2.45353495343 Dipole_moment: 5.089
 S           1.16542576308694    1.13592942055412    0.88471643219747
O           0.97042163385036    0.56872484747571    2.18918756269939
O          -0.06306211007418    1.65066719333579    0.27660778294224
O           1.85785094717266    0.25254961201192   -0.04305676168778
O           2.09329003958000    2.40665321747111    1.07600810454849
H           2.13759990768301    2.80011879467242    0.21001334218693
H           0.89413861516692   -1.00796894391003    0.43326059372542
O           0.28417018965601   -1.72644113813110    0.70801513175489
H           0.65490498957521   -2.05870178167372    1.52852792860204
O          -1.53328561190588    1.23719685116939    2.68830030727995
H          -1.60144701195506    1.96297889356431    2.06208604648143
H          -0.58345959877334    0.99611217707176    2.68534557359680
O          -0.68017519932004   -1.62565838493905   -1.91323818498560
H           0.13453750870784   -1.25006537085926   -2.35706260909550
H          -0.36317026384869   -2.03362984511798   -1.09455608290142
O          -1.88119108303626    0.29664649452536   -0.85909912051036
H          -1.14096987741048    0.89653216525116   -0.49969289733187
H          -1.41564057572498   -0.49023282744435   -1.40319182546281
O          -2.28634937401219   -0.87010727316486    1.30175422129158
H          -1.43903142686204   -1.34890688324943    1.25964092738263
H          -2.14565493322886   -0.13427057049644    1.95275180803546
H          -2.22287241756597   -0.19263370156394    0.02456777585286
N           1.55244494561982   -0.49855082696110   -2.77491169495790
H           2.29576155877037   -1.10007166662847   -3.10590857146638
H           1.80878321300827   -0.17211645064364   -1.84237844504983
H           1.50698018196079    0.30524599774437   -3.38768735501547
