    26
        -50.45060312  Gyration_radius:  2.44673408445 Dipole_moment: 6.223
 S           1.71484949396146   -0.33093347280764    0.78936024476026
O           2.14645518078637   -0.15150443212600    2.14008585418425
O           0.91610620100184    0.74524288607060    0.25984665800987
O           0.90669488337807   -1.65490481544381    0.66323995702127
O           2.89080411988623   -0.58941728694906   -0.14051571746923
H           2.44484391023541   -0.52119423410591   -1.10909888895098
H          -0.08578995572949   -1.51725052861908    0.71356134759097
O          -1.65151908764563   -1.39093917582005    0.70514297848307
H          -2.03132651345229   -1.98139450903064    1.35766600813632
O           0.11119114667083    1.46016771949502    2.94602075610696
H           0.43706370263613    2.31807387011054    2.66611161870567
H           0.84470755086010    0.84064967589738    2.78559444995455
O          -1.21315519681869   -0.96810213775306   -1.97800083555862
H          -1.84410840125773   -1.47313216409736   -2.49369108674003
H          -1.38693469341299   -1.18091554786535   -1.04414755919178
O          -1.21081241823103    1.75201505922431   -1.01849294722434
H          -0.35411227449207    1.56273269178404   -0.60111959923055
H          -1.39289413083854    0.97029319113529   -1.55502737521692
O          -2.10077529996218    0.98830564152098    1.43420619497531
H          -1.91318117498541    1.46049971762836    0.59562294999830
H          -1.87114817404561   -0.43396989555312    1.02081509202503
H          -1.35617775317314    1.19518459494139    2.03754328830243
N           1.65313399105446   -0.33081934950346   -2.33795437067904
H           0.70197243313823   -0.66393916793304   -2.18631183222414
H           2.03496170578576   -0.77408426477291   -3.16340696308313
H           1.60915071467200    0.66933594453679   -2.48705026271001
