    26
        -50.46887315  Gyration_radius:  2.48653906276 Dipole_moment: 3.032
 S          -0.40443546986578    1.12530143945700    0.19185392033980
O          -1.72405688211046    0.50809211294294    0.14255843658852
O           0.31052861736947    0.95100195530636   -1.06507692134363
O           0.38272073030626    0.59408451700818    1.31276060387233
O          -0.64147819076767    2.62988547659718    0.44269440388510
H           0.24974651275789    3.07126264819153    0.48720921615238
H           0.49708692790674   -0.99390672171049    1.14921112650454
O           0.58140994636359   -1.96861107673905    0.97821131059187
H           1.25719579434034   -2.28421452126818    1.58080314949445
O           2.70937140997807    1.22662601876352    0.23816255974329
H           2.40825856548816    1.11379344701314   -0.67085845547066
H           1.95641325989302    0.90076356572978    0.77307282636177
O           1.74317459336486    3.63873302099551    0.69386860097617
H           2.28230679681376    2.83171485362317    0.49681561600014
H           1.89222671587738    3.84522425692056    1.61897078397522
O          -2.15271273873011   -2.24468168551233    0.98836852353605
H          -1.19503162080039   -2.37050379387973    1.10995467081563
H          -2.29575736735614   -1.30426434398230    1.15922256335351
O           0.58779841487889   -1.56929932242095   -1.75127305472942
H          -0.97899905837164   -1.63509743560337   -1.80307876009174
H           0.61686721874560   -0.59197358142157   -1.62805184840619
H           0.78283632283711   -1.92925860533209   -0.86932469722895
N          -1.99725290375176   -1.45417558296777   -1.52036317144738
H          -2.65210976889470   -1.50329600470534   -2.29154358261609
H          -1.97715270423760   -0.50262623248176   -1.04621557275436
H          -2.23895512202783   -2.08457441451519   -0.71795223811050
