    26
        -50.46887317  Gyration_radius:  2.48686503355 Dipole_moment: 3.030
 S           0.27057117624993    0.98131109328306    0.65540376570425
O           0.32704787294052    1.65429751199587   -0.63640291771777
O           1.25579534617153   -0.08800339007374    0.74052881722350
O          -1.07865565171529    0.46386599863577    0.92006286792334
O           0.58829614710017    2.05699174929202    1.71598850031953
H           0.54908216020421    1.61979248854818    2.60946013796893
H          -1.48500253563696   -0.53043969620806   -0.26631479552471
O          -1.67150002541510   -1.17589495410587   -0.99775758701222
H          -2.45098825049108   -1.66369546924432   -0.72596350929545
O           0.30219141117591    0.83866579159897    3.99645782564324
H           0.12054194750012   -0.07799881716622    3.66851423421210
H          -0.50876363647685    1.14536661324309    4.40748811045653
O          -0.25682516279069   -1.35709301667130    2.64563013495541
H          -0.73740140110783   -0.77018721231036    2.02609690121827
H           0.59644503583429   -1.49066573088024    2.21692687727290
O          -1.31510314004481    0.79115312780639   -2.88275984543780
H          -1.63004081440378    0.02433337447212   -2.37213667708852
H          -1.13265601315244    1.46610886649120   -2.21564313355009
O           0.98954698713625   -1.88730233912554   -1.15452824039490
H           0.01841305417379   -1.93422914901950   -1.16180666703896
H           1.27869818465499   -0.72743816994455   -2.17124460419116
H           1.20190745804369   -1.34354934486446   -0.36053932351425
N           1.24924808431620    0.25264287938977   -2.60475700357408
H           0.33405692626532    0.37077323111314   -3.10284628637354
H           2.05719720494941    0.47376646496042   -3.17422400656032
H           1.12789761459503    0.90742809876841   -1.77563357563218
