    26
        -50.46228304  Gyration_radius:  2.41040217871 Dipole_moment: 5.705
 S           0.33289981619351    1.24205942457806   -0.87960420634263
O           1.18834114117118    0.77071926156186    0.21565667750200
O          -0.38928047809229    2.44954999411476   -0.50801193075900
O          -0.58483570763316    0.17490198697827   -1.29492284264763
O           1.23879085859599    1.58410308732076   -2.07816138476289
H           1.71475904335201    0.71972029938228   -2.29854724463169
H           0.11943985082825   -1.34463511268842   -0.80374217316170
O           0.76937623580583   -1.76631057739441   -0.20516083237303
H           1.22724904665329   -0.97257729142468    0.13971258621798
O          -0.94701880684658   -1.78695240211350    1.81702675496775
H          -1.04014390758148   -2.63258351721852    2.25684729854755
H          -0.28420193792964   -1.91242178630146    1.08917147884434
O          -2.61395263125779   -0.14878863687125    0.34343784366321
H          -2.22652412664727   -0.83625654796511    0.91425645723842
H          -1.98366130212326   -0.05446251231742   -0.41016101758814
O          -1.88492186449747    1.99122838063187    1.42999566368180
H          -1.31635912697274    2.33691550671498    0.62588349563642
H          -2.37009094507253    1.15452713827722    1.02056916449153
O          -0.03210087659674    0.71763727271578    2.54261799061441
H          -1.15740740554194    1.56194081057131    2.05372054978124
H          -0.34406050405910   -0.20459275794386    2.51811270096365
H           0.57602525466081    0.80462427459476    1.77019488402426
N           2.39412962551310   -0.72264759700186   -2.53167763853541
H           2.03225113091205   -1.37703154266609   -1.84364909247263
H           3.39912726034225   -0.67122412813768   -2.42858771126721
H           2.18217039680065   -1.07744301725432   -3.45497747161749
