    26
        -50.44902223  Gyration_radius:  2.48955549766 Dipole_moment: 5.099
 S           1.16753773903396    0.07762446369887    1.49653735110481
O          -0.23734451069400    0.41077327498584    1.46089627881383
O           2.04006292066448    1.19808171414409    1.21388228370256
O           1.44035709444306   -1.08156924129998    0.64424385831111
O           1.52162182017389   -0.36307849968771    2.98232127464796
H           2.31173881779661    0.14240187093675    3.14299893383525
H           0.05812713285924   -1.44327635705676    0.01338437174250
O          -0.75397478540272   -1.65011228045852   -0.53524586445791
H          -0.47470583523006   -2.30594721687651   -1.17719181106210
O           0.90245518320967    1.81872071940462   -1.07957737611522
H           1.49308693623490    1.20196583039167   -1.58231732734710
H           1.24980851708162    1.75915961804205   -0.16162030652051
O          -3.23336302748340   -1.27719745671962    0.75987522954529
H          -2.31228427046075   -1.49776287038189    0.55317466188077
H          -3.77884333693880   -1.72271612541956    0.10984178043667
O          -2.59442262571825    1.35239877316048    0.83155348743828
H          -3.07523402781480    0.51007385228872    0.95321950205623
H          -1.77345663263082    1.22688107509970    1.34538650949000
O          -1.35176269092629    0.78908752993745   -1.26467976836303
H          -0.40310967888577    1.29768932893176   -1.18865666170141
H          -1.14676833038440   -0.16835513921615   -1.04126761608030
H          -1.93460459521398    1.12772079603789   -0.43929384959328
N           2.54221178607109   -0.15036350613098   -1.82845901541371
H           2.29100250226370   -0.59507179911963   -0.94357314972002
H           3.48303428471221    0.20772110608441   -1.72023902307185
H           2.56882960323785   -0.86484946076262   -2.54519375356180
