    26
        -50.46928637  Gyration_radius:  2.44082319101 Dipole_moment: 3.985
 S          -1.47897771705195    1.61289100511786   -0.05513536669328
O          -0.64509386521435    1.75870287767094   -1.21838433923641
O          -0.72007736011687    1.11186285741501    1.09372602797104
O          -2.68914638367076    0.84592172475213   -0.28509873149014
O          -1.99091449661875    3.05607785291644    0.37037028187031
H          -2.92618442117569    2.93750203701504    0.24882275220345
H          -2.02500949593242   -0.48017052780435   -0.88630702261841
O          -1.62442055363800   -1.34008350518837   -1.16856714156971
H          -2.17566861311437   -1.66124222786606   -1.88458899309525
O          -1.05825177723543   -1.47396193941539    1.55260814084925
H          -1.45140741555125   -1.73151689003388    0.70522592073164
H          -1.07280133302460   -0.49254057667968    1.53226307088553
O           1.86572449918682    1.09626695565311    1.21028986215217
H           0.87739587416028    1.17532269329496    1.12708415703239
H           2.12186302962253    1.72506302764258    1.88605664264120
O           1.85777440787352    0.95777833847425   -1.62613245134806
H           0.95760908392777    1.33953992665619   -1.63690239440737
H           2.17184689232967    1.11537212217379   -0.72646680835168
O           1.09416511202708   -1.56041793370821   -1.58534174954257
H           0.12303040562036   -1.47747004528867   -1.57972894107790
H           1.43669916107329   -0.64826589139964   -1.77488987700202
H           1.41857958910558   -1.67571081082515   -0.12093493706671
N           1.49821965234557   -1.59259673311125    0.96329183024374
H           0.49612227410803   -1.65761184536179    1.32459886361336
H           1.83985337324867   -0.63660100872655    1.17267623483700
H           2.09907007769751   -2.30411146337635    1.36146497848780
