    26
        -50.46220853  Gyration_radius:  2.42286765444 Dipole_moment: 2.971
 S          -0.28675002135176    0.54354638588400    1.09355845622102
O           0.95674400093539   -0.21905714271796    0.90946105076750
O          -1.43878988407119   -0.34796608254012    1.10177616785277
O          -0.40349052585112    1.57061671178206    0.06767750802030
O          -0.22194831998596    1.22087314445480    2.48053178104367
H           0.49652735850818    1.90684519046437    2.36015705459974
H           0.73828716999645    1.19414269555069   -1.10429238238479
O           1.45869767336574    0.80448797417831   -1.64581320428304
H           2.05011853236836    0.40831465879724   -0.99866044555638
O          -2.13521111439131   -0.18876798069475   -1.44765809112470
H          -2.07469774162528    0.74683774265218   -1.65618117382184
H          -1.99014962313636   -0.23138197367817   -0.47950763313909
O          -1.64219996429431   -2.93019649872340    0.66924448492920
H          -2.33122032359874   -2.97776024830898    0.00166383088354
H          -1.67755091196434   -2.01591838123646    1.02838477204479
O           0.06801041113282   -1.30940417640289   -2.39383746394150
H          -0.83711048649599   -0.96668261250661   -2.18493708433884
H           0.65531434063006   -0.51282752311530   -2.34270131543926
O           0.68327004132601   -2.41678119247839   -0.26833294569034
H           0.44323581178232   -2.01981179512617   -1.26772999957736
H           0.86922089788760   -1.56167466690061    0.28640910110908
H          -0.19018977057576   -2.78530536628691    0.10588579354847
N           1.57497016786626    2.89588881982678    1.61208304365098
H           2.48357770915714    2.47846028922015    1.46077401182428
H           1.70362497618280    3.86628486379304    1.86700376506187
H           1.04770959637236    2.84723717416596    0.74504091775065
