    26
        -50.47072341  Gyration_radius:  2.48634988445 Dipole_moment: 3.603
 S           0.25759857209490    0.11958468190223   -1.19711930758853
O           1.65826195912127   -0.08039381818277   -0.85118893762765
O          -0.27683940040968    1.32599841247139   -0.57515360317956
O          -0.53518646573018   -1.05554097480761   -0.81659252758896
O           0.17200258677084    0.27274095331246   -2.73093641247682
H          -0.69134047516052    0.76538350600515   -2.85900666738462
H          -0.53213750445116   -1.25756729030646    0.77125942100320
O          -0.49369630963096   -1.35354207723557    1.75865271838861
H          -1.22463611148406   -1.92665113998336    1.99632617750358
O           2.22043742882778   -1.73445222559355    1.51780956254260
H           2.20996614544659   -1.65592133962249    0.55490825360619
H           1.28286496228322   -1.79075837863445    1.77328120769176
O          -3.02766449073694   -0.83705187514868   -1.66020879116256
H          -2.12679800779983   -0.98006988051108   -1.29451869977823
H          -3.16562978366896   -1.53074286473424   -2.30739097510825
O          -2.06545036673931    1.50753876188519   -2.56276345200206
H          -1.68792714416519    1.83461284462477   -1.73146384069274
H          -2.65033946238401    0.76400631632431   -2.30593616144408
O          -0.13751318260726    1.35759711952971    2.05735557763213
H           1.40502490815902    1.21979846381385    1.85306549635157
H          -0.33477526665075    1.50351278769716    1.10515285300275
H          -0.41286141992631    0.43862127866531    2.21823797237094
N           2.34728445743482    0.89643586616138    1.45139592114116
H           2.53744658259806   -0.07627484317527    1.79523642504007
H           3.10757980501523    1.54436887138315    1.61991703543398
H           2.16432799380031    0.72876683415598    0.41968075433115
