    26
        -50.47128644  Gyration_radius:  2.44471028294 Dipole_moment: 1.910
 S           0.70788233757168    0.81124808794449   -1.55754449578891
O           1.95990929256922    0.49692859670270   -0.88859172670847
O           0.04530653058961    1.95875790527887   -0.96264290992348
O          -0.16401838344891   -0.34018489962916   -1.67774588612004
O           1.09442270593017    1.22878747746085   -3.03231936848960
H           1.75978106728243    1.88326201387241   -2.85166480764463
H          -1.30139593687652   -0.62046532259869   -0.40445367703963
O          -1.85786076389744   -0.73213754748002    0.38849097324084
H          -2.28186710146583    0.13547453456458    0.49811794723947
O           0.22650071813613    1.90533596788668    1.74136142509614
H          -0.66338036997227    2.25004966812857    1.86619975355491
H           0.37743231798416    1.94956458538922    0.78038122664028
O           0.04941146365501   -2.91798410803367   -0.98959912080415
H          -0.02626659894974   -2.07733679965661   -1.48162061082617
H          -0.79892064754876   -3.02648084588983   -0.54985336335710
O          -2.36864544463851    1.96479115124948    0.20514356500854
H          -3.03298416267180    2.34333693492272   -0.37168914164708
H          -1.52058992396356    2.01591605629450   -0.28243032695901
O          -0.02233033006477   -0.69611269390456    2.32163364981826
H           0.14895488496777    0.27130596028466    2.29289921076839
H          -0.81119014343009   -0.81682442677753    1.74233153294962
H           1.06664832376935   -1.28024704183291    1.44751723091732
N           1.72317066827301   -1.61644675766938    0.65034175357548
H           2.58278668152651   -2.01666270349759    1.00804505747276
H           1.92000768792495   -0.77401803093209    0.04527872724679
H           1.18723512673999   -2.29985774207780    0.06241337178080
