    26
        -50.46482731  Gyration_radius:  2.44775930281 Dipole_moment: 2.939
 S           0.88935873072956   -0.43281127811631   -1.63105809042422
O           1.22149351345991    0.98821971489746   -1.58815562035484
O          -0.53904695218704   -0.64674566964891   -1.51257862617430
O           1.67955134061976   -1.19924693429820   -0.68888486235823
O           1.30360575809970   -0.96109547157225   -3.06457631983290
H           2.22230542344760   -1.15690133750645   -2.91904638189470
H           1.38194778140261   -0.87292163111578    0.86123998336226
O           1.23206212453588   -0.59355206026225    1.80035178394401
H           1.71816953284186   -1.21986529179354    2.33968092556453
O          -2.35449645066699    0.62594080710413    0.05418520317533
H          -1.35713748087058    1.75967283721308   -0.01933022061263
H          -1.95052938700899    0.09403787587638   -0.65326605813071
O           1.70713501719851    1.99360138630979    1.14782712798814
H           1.58057177913437    1.13765566916761    1.59761719402520
H           2.04351495763859    1.76288509063513    0.27266009728909
O          -1.17993483685642   -2.78413895323506   -0.03694267725328
H          -0.84238190590066   -2.06564983581523   -0.60813240547751
H          -1.91164231981427   -3.18158977770403   -0.51174148738367
O          -1.50625283221949   -0.96212458284626    1.97081066506278
H          -0.56746447243412   -0.73461791269569    2.07339382826262
H          -2.17274665972225    0.10048318249660    0.87840323812886
H          -1.49593663855034   -1.76340441817647    1.41424985040143
N          -0.51274275832841    2.40879470438754   -0.23444860000492
H          -0.80681118405991    3.32965831036229   -0.53924187644152
H           0.06021455119504    1.91601531961652   -0.97159700762169
H           0.15719336833175    2.45770025671682    0.56858033676073
