    26
        -50.46277955  Gyration_radius:  2.44194007318 Dipole_moment: 2.174
 S           1.02075113785912   -0.58208801489939   -0.60395350674913
O           1.29757163524471    0.29736612957023    0.52378029236714
O           0.17917586725999    0.09492949422016   -1.59147887331482
O           0.41893699284457   -1.83442536656444   -0.16273086644761
O           2.35767131436061   -0.90047100067196   -1.32658506672410
H           2.87942202227436   -1.32971529539059   -0.60255969653693
H          -0.97996867091303   -1.61983205234337    0.53365951902517
O          -1.85732503907381   -1.40436627520014    0.95913525836450
H          -2.19208730860913   -2.23056783493398    1.31083099008244
O           0.10975458694601    2.68997204951163   -1.49892693681955
H          -0.02066068856782    2.96918638852206   -2.40736383313977
H           0.30145641164142    1.71815747229162   -1.53357440761603
O          -2.42767418942471    0.13317886874116   -1.20362308602051
H          -1.50731981930557    0.01983446333061   -1.53530993215762
H          -2.49876083324394   -0.50717469392955   -0.47176467771301
O          -1.92413647480936    2.28878231909255   -0.01796561961651
H          -2.27910727569093    1.45155417925316   -0.54715812614979
H          -1.12985552008706    2.61224473453428   -0.57599456968591
O          -0.84584860204371    0.98820740909684    1.81316782667175
H           0.04456231204932    0.80452585280924    1.41194089768478
H          -1.48524670098279    1.83992588721825    0.84902299103762
H          -1.31804606647646    0.13774398434820    1.76085809664773
N           3.06245231149838   -1.87660105429327    0.98297138002578
H           2.24795956514739   -2.48017343087072    0.97979997516274
H           2.76783166268452   -0.99250861399818    1.38486915411528
H           3.77849135941126   -2.28768557944585    1.56895282750261
