    26
        -50.46862858  Gyration_radius:  2.47481118749 Dipole_moment: 4.022
 S           2.16019282546382   -0.13315715022803    0.60020535244246
O           1.70061033577423    0.16257395166259   -0.76754401839926
O           1.40728469764184   -1.21346363509348    1.17640472138030
O           2.23634703833298    1.06681256213118    1.40742066381704
O           3.65928105435720   -0.63293460361271    0.44076283007176
H           4.13238056687705    0.19165744210308    0.47619089616820
H           0.68832339998541    1.35473149311217    1.73930286884781
O          -0.26998876660218    1.57296204590732    1.84706942223218
H          -0.36885301733796    1.89760497214896    2.74380095117560
O          -0.09916404129439    2.15200406782006   -0.84381979148132
H          -0.26616235723727    2.25055249757684    0.10602697458776
H           0.66578247837197    1.54487017669537   -0.89361263531918
O          -0.86637967667059   -2.50519362510496    0.66478593491123
H          -0.01749303791911   -2.24449960231752    1.06860809647881
H          -0.53579142065921   -1.97947179926653   -0.70620596197380
O          -2.03359447003870    0.64561202032203   -1.70133266334668
H          -1.32483153556013    1.29262595574914   -1.40878136470114
H          -2.58098564479887    1.11025798746174   -2.33447340113624
O          -2.20699809761396   -0.22862512089416    1.01159848653550
H          -2.36754172001174    0.08017570729148    0.10971440423689
H          -1.49699504169619   -1.80191365644724    0.94683028774559
H          -1.53790666462770    0.37276146802879    1.38118225965252
N          -0.24413910364262   -1.40044681414528   -1.58501414063217
H           0.60066384470582   -0.82876615362342   -1.29617374288297
H          -1.00822162550274   -0.73361437219555   -1.80561282729413
H          -0.02582000029079   -1.99311579507610   -2.37733360311455
