    26
        -50.46862859  Gyration_radius:  2.47477548583 Dipole_moment: 4.025
 S           1.48004281679148   -1.48811695291795    0.79945027030640
O           1.47580415118183   -0.99172024313173   -0.58731265635939
O           0.14976538869007   -1.81260326682550    1.23647847452223
O           2.22196886326876   -0.60759340186686    1.67788283217556
O           2.30851169172776   -2.84250492645441    0.75817638792489
H           3.19431071935044   -2.51989360696017    0.88652172920215
H           1.20039810951552    0.62009879993901    1.87334334519602
O           0.60488117948051    1.40898400359137    1.89932130266553
H           0.64137775151722    1.73953586217109    2.79862544235130
O          -0.93126785926927    1.77549275251063   -1.85109618435637
H          -0.97471868967507    2.47155934000866   -2.50684059538167
H          -0.01070298418842    1.81536982048953   -1.45419869053617
O          -2.34495099055981   -1.33560360803524    0.43163046174381
H          -1.57985095622876   -1.67839841126190    0.93045089711832
H          -1.60338556713241   -1.17520684846170   -0.86814904699781
O           1.40719044817040    1.68762123673223   -0.72408702988018
H           1.23836846926371    1.88881065572208    0.20912599039013
H           1.59935915244553    0.72888325655727   -0.73410572168217
O          -1.92868736036617    1.27361540890872    0.77712353201843
H          -1.07631003031864    1.30580853118591    1.24437886092640
H          -1.75003678067411    1.59544051865418   -0.11677181213254
H          -2.39970779456662   -0.38613137647628    0.69110617528924
N          -0.91142792091111   -0.93954180718719   -1.67953721963613
H           0.06364493032352   -1.04538038162438   -1.27733095729700
H          -1.03416846239190    0.05904916759444   -1.93442058850506
H          -1.04040826544605   -1.54757450286698   -2.47976519906087
