    26
        -50.43668967  Gyration_radius:  2.82957334656 Dipole_moment: 6.500
 S          -2.18596874558634   -0.48956139491725    0.39342517746200
O          -1.61316345098374   -0.20944059203389    1.67333977223883
O          -1.58185399838987   -1.52349163598832   -0.37589530339893
O          -2.19665994974015    0.84699880500777   -0.43082381658692
O          -3.69946772205502   -0.76396406813370    0.52158078251979
H          -4.07375273567069    0.04978239780609    0.93354636725032
H          -1.22539437323915    1.07779263988970   -0.65629587806775
O           0.24503911374453    1.38390019196775   -0.81405008962699
H           0.41186424201150    2.31121538268040   -0.99422326773607
O           2.34139369148128   -1.23858009202675    1.01658589892635
H           3.18737181809399   -1.02290102538785    0.59055937999847
H           1.77947774167503   -1.51408167294450    0.26991357543962
O          -4.29528613374635    1.70560389724331    1.12444814880463
H          -5.02887883692620    2.05811033011320    0.61376800897058
H          -3.48589940123783    1.87721927022217    0.62425794887306
O           0.95757372268248   -1.32296841703170   -1.37767138551525
H           0.85508827783391   -0.36446317469029   -1.43455711049371
H           0.07870558769062   -1.64760710761572   -1.13016712142369
O           0.87855704020956    0.87560848738578    1.57273193498825
H           0.57290047688275    1.21530978338308    0.15636764849840
H           0.03334910238863    0.49676347226512    1.86861675214831
H           1.50031508740851    0.10247608376915    1.50342938648092
N           4.09118883149024   -0.92609584538890   -1.14469037278832
H           4.46125052448082   -0.10640887116581   -1.60965178526508
H           3.23547314455338   -1.19283364493865   -1.62172890418054
H           4.75677693493726   -1.67838315947307   -1.27281574753173
