    26
        -50.45209649  Gyration_radius:  2.57661414635 Dipole_moment: 6.621
 S          -0.56591632551002    0.60008788239062   -0.76234471430977
O          -1.24783993845039   -0.51507258541921   -1.33690205762955
O           0.87348350722750    0.51972563111279   -0.82176143111003
O          -0.97369024314538    0.76956607152309    0.73110356146261
O          -1.05834296063703    1.89887331094472   -1.37443420182721
H          -0.76464516930424    2.65382787812278   -0.73517160938273
H          -0.86022551432639   -0.11848032839121    1.20868624559924
O          -0.53634188589980   -1.48514725332909    1.82665378693553
H          -0.18054466891130   -1.44603683636842    2.71651033529651
O          -0.20252715645518   -3.18608133917894   -1.63705246550499
H          -0.44063619969957   -2.37212088779310   -2.09438028589245
H          -0.98182857714750   -3.38209647830742   -1.08406547957390
O          -2.35899137695484   -2.71068406215149   -0.00828128278835
H          -2.28243128818222   -1.90412323023042   -0.53665287827643
H          -1.94866261424283   -2.50062943801526    0.83807058289950
O          -0.27611664859938    3.53720065144334    0.36553146634615
H           0.71705503577859    3.37717398231350    0.36070139015972
H          -0.62349029595986    3.09859816242884    1.14720415875715
O           1.32670485132722   -1.96887560989358    0.15881752624567
H           1.37545228629467   -1.09758981695986   -0.26829983106598
H           0.23181128154102   -1.77122328292641    1.21886508003214
H           0.90643948232429   -2.56154633897323   -0.51306911967514
N           2.24838933690299    2.78753035696318    0.22235343237152
H           2.82767718635669    2.58915158724072    1.02826706072897
H           2.81540303970906    3.28913019288751   -0.44931197530000
H           1.97981485594141    1.89884178057944   -0.20103727451449
