    23
        -45.37890829  Gyration_radius:  2.2881559722 Dipole_moment: 2.675
 S           1.31597886388558   -0.98008247935815   -0.27900875328891
O           0.89449863553435    0.17613931521738   -1.04957972287027
O           2.12271266607585   -0.65755002458782    0.87259136840129
O           0.16652665329816   -1.82241382435183    0.06493752115588
O           2.23290452162898   -1.85196909647630   -1.23358030789026
H           2.90071203508701   -2.15729913375041   -0.62826362457833
O           0.94548033242409    2.67318169909043   -0.03837653855778
H           1.10734917869770    1.82173200386577   -0.48640254806331
O          -1.79763808766362   -1.71239703806793   -1.76274277715968
H          -1.46725023017479   -2.03271260143090   -2.60302923748608
H          -1.07907439385853   -1.86136288997018   -1.11519722485596
O           0.82169181647640    1.23495941765216    2.22906650473007
H           0.92589797327973    1.96891728502061    1.58879579420881
H          -0.50039646261726    0.55523458779635    1.83993832428206
H           1.45017635404371    0.55380443383122    1.91186014933831
O          -1.68759644912659    0.89805415672947   -1.06060591702649
H          -0.72853750252236    0.78650176019444   -1.21719641984655
H          -2.06441604220914    0.09064514739807   -1.45636884741392
H           0.15257287378309    3.03558881281009   -0.43978490820674
N          -1.27284133077127   -0.03328304901765    1.36604750634655
H          -2.03082648454380   -0.26134733425567    1.99997875419097
H          -0.79310297426089   -0.89325059474781    1.00480482475743
H          -1.61482196641684    0.46890943629770    0.49211608007179
