    23
        -45.36831555  Gyration_radius:  2.34522791003 Dipole_moment: 5.156
 S           0.62188643690033   -1.30811891225322    1.03643162962789
O          -0.37267901591981   -2.03487666651465    1.82089203172906
O           0.42796780928131   -1.51092102157649   -0.39325610238170
O           0.67857227239311    0.08842232106829    1.40470051302771
O           2.03024822237514   -1.93288356735219    1.39520200451219
H           1.95810297370535   -2.85977056541140    1.18284845266745
O          -0.76640808915506    2.08519196429383   -1.65172354871220
H          -1.06471308953707    2.98574030818780   -1.52379593432344
O           2.16426092495996   -0.32035145306694   -2.05425204494762
H           1.58220685493003   -0.83630761429564   -1.46239712740853
H           1.68517496287700   -0.22987418383841   -2.88061269675274
O          -1.85413785114450   -0.17756202016917   -0.82122214402207
H          -2.05691383293883   -0.01143211678299    0.62711429288821
H          -1.53662775787730    0.67407975505838   -1.20982042257833
H          -1.06942121370786   -0.76424061357599   -0.82399231907575
O           1.56126294491664    1.81606290185510   -0.47742027254072
H           1.33075842189419    1.27585732230289    0.29990445279152
H           2.01348897733530    1.19447641258145   -1.07912101089965
H           0.13994753662974    2.03173266895883   -1.23881929606234
N          -1.95049989858484   -0.01249099462698    1.72817714598513
H          -1.22880317313080    0.67329350335833    1.96346768739522
H          -1.47625091858176   -0.95171642793599    1.92075883125023
H          -2.81742348759670    0.12568896970933    2.23693586782342
