    23
        -45.36831558  Gyration_radius:  2.34520053235 Dipole_moment: 5.157
 S           1.27620103239806    1.09993489239877    0.57818118491906
O           0.82255860824249    2.30393586420911    1.26903869746048
O           0.93109700695320   -0.10512908448671    1.32081501356987
O           0.82176612576592    1.06596565876032   -0.79346600148065
O           2.85609484943739    1.16763983332439    0.53468901615805
H           3.13259489430104    1.22894853352888    1.44530025759203
O          -1.83236005715207   -1.81978196803829   -0.99626707639173
H          -2.44473630430262   -1.84279499682388   -1.73161801249266
O           1.70071124786371   -2.45578530526251    0.28501073236826
H           1.08655597704399   -3.09450416073381    0.65302349602738
H           1.49681028297663   -1.60579647929885    0.72232780254399
O          -1.73262195718560   -0.15513665712605    1.05590061583526
H          -1.86579833720784   -0.82419964982874    0.34052613585039
H          -0.79088107465135   -0.24303716781319    1.31163889560941
H          -1.72436179552077    1.19512913464533    0.47020135148412
O           0.57047045678506   -1.36854345557732   -1.94077153095316
H           0.72345479660816   -0.44727294682844   -1.66323369670886
H           1.12169919818930   -1.89921558271902   -1.33456856786462
H          -0.92575977716621   -1.69787027699716   -1.39372543781131
N          -1.43288234052707    2.17626863619825    0.05062132084047
H          -0.58977174189583    2.45018892044837    0.64926980029422
H          -2.17470750339176    2.86837888010170    0.03888457979171
H          -1.02613361755756    2.00267737792415   -0.87177857667672
