    23
        -45.37705784  Gyration_radius:  2.2912677984 Dipole_moment: 4.611
 S           1.63838966418442   -0.54549654314404   -0.14431170944322
O           0.97953329555505   -0.57778756296463   -1.45494573983664
O           1.20934977775327    0.62928402778693    0.61349022223632
O           1.48434377730713   -1.78108207183488    0.56798400342149
O           3.17782597080061   -0.30377666497843   -0.41971686990626
H           3.26946437586618    0.62901948465553   -0.25246106842362
O          -0.42702702916142    0.31466477862381    2.74226199503379
H           0.30616554507658    0.41946779760172    2.10740690661838
O           0.08322383797259    1.71861581125773   -2.47981840566012
H           0.48327798546975    0.88648168867452   -2.15223793842621
H           0.38090451998090    1.82345719387666   -3.38392533443524
O          -0.94927015877333   -2.06312766188253    1.61347108722267
H          -0.01979116428005   -2.21570431790240    1.34776436898011
H          -0.88995470433140   -1.32390287155632    2.25435376295147
H          -1.41523260035169   -1.38526981991509    0.32547231911640
O          -1.13575049104745    1.74472089596202   -0.03788747599293
H          -0.96148871228748    2.09964560949853   -0.92166183851998
H          -1.01990536379936    1.05209348024280    2.57952811067395
H          -0.24533129889537    1.49125225681654    0.28413487388556
N          -1.50517896174549   -0.81052586804310   -0.58888784170802
H          -0.57951524882792   -0.88451970459564   -1.07781253227829
H          -1.59721350597373    0.21973123425067   -0.34865462632974
H          -2.26681950897597   -1.13724119170065   -1.17354627890160
