    23
        -45.36831508  Gyration_radius:  2.34522958166 Dipole_moment: 5.160
 S          -1.22807168491309   -1.28862116508407   -0.03104461572190
O          -0.18735106852425   -1.21661411750442   -1.04802193029509
O          -1.00953245060255   -2.40754199512505    0.88164769941117
O          -1.40728209705993   -0.04329214919037    0.68065936727633
O          -2.58480185679158   -1.57968807354362   -0.79070977671096
H          -2.46439011912152   -2.42822116113138   -1.20896885490075
O           1.78364169575734    2.11511136754882   -0.07722573604203
H           1.99519176766426    2.85576098418700    0.49102749545769
O          -0.38875340501060    0.72327697938251   -2.88860801916594
H          -0.35201133107113   -0.04498065322634   -2.28552621529384
H           0.51029797365494    0.86093664619097   -3.19397383806689
O           1.93821680573542   -0.48066335397229    0.40451479130678
H           1.18835025922220   -0.69490930308017    1.65326351859288
H           1.29325251941256   -0.82145007866872   -0.24959903708463
H           1.99996099883191    0.48833737561172    0.22000138580056
O          -0.77213753998298    2.22340906268595   -0.64873113407203
H          -1.12552924937968    1.48542195546897   -0.11993201371187
H           0.82041081997798    2.21486706185346   -0.31575807729501
H          -0.78301798820479    1.89122623245777   -1.56654710471713
N           0.40759524694878   -0.90707648864757    2.40741379752864
H           0.76088720802598   -1.11476564504650    3.33557935304438
H          -0.14450567607911   -1.70673893207379    1.96089276657678
H          -0.25042081855853   -0.12378456909734    2.38964618807945
