    23
        -45.36831550  Gyration_radius:  2.34523021949 Dipole_moment: 5.156
 S          -0.18377555186164   -1.40575906374060    1.07818582791918
O          -0.98239448524444   -1.27958554884345   -0.13387001880288
O           0.82678075474869   -2.45194921618274    0.94800566191116
O           0.39500646687628   -0.15177221939617    1.50459256822229
O          -1.17129356466040   -1.86674827244397    2.22481386629309
H          -1.50935481338721   -2.71288991862533    1.94351011310865
O           0.12899397309644    2.27680743143946   -1.56930387894419
H           0.68026400945897    3.05887802697508   -1.59726787867368
O          -2.94864003329983    0.54345670097194   -0.13208962782191
H          -3.08226438950782    0.75569969203326   -1.05821544758877
H          -2.30067940425261   -0.18816160084971   -0.11591753537460
O           0.80310167638252   -0.26463976875010   -1.85169380899202
H           1.89400978779760   -0.49321570786720   -0.89048419987439
H           0.06036607317466   -0.69937521435445   -1.38333140503747
H           0.56957279915203    0.69576506070482   -1.86293065009845
O          -0.93055540908736    2.10295304407902    0.82150248562036
H          -0.43294258868703    1.35887807919932    1.20612851106273
H          -0.29644344913292    2.26921907790775   -0.66721898608106
H          -1.80919215724459    1.72845875869561    0.61978396892655
N           2.49614318009620   -0.74712454657797    0.00209150717105
H           2.00342062994000   -1.61710429785945    0.38218076174074
H           2.30388832738179   -0.03424684177865    0.71012842844406
H           3.48598816824667   -0.87754364471386   -0.17860025314040
