    23
        -45.36831560  Gyration_radius:  2.34519899054 Dipole_moment: 5.158
 S           0.27715757270612    0.46941393995050   -1.69569531000879
O          -0.33885461116526   -0.38417586244198   -2.70797011617171
O          -0.72590911931805    1.14631813976103   -0.88421774108637
O           1.24811090435514   -0.25243569984569   -0.90491698409261
O           1.06822683268343    1.59832997946840   -2.47173652210864
H           0.41800856717870    2.03603460628678   -3.01488906304549
O          -0.29223579801676   -0.58028722990755    2.69058979728272
H           0.05522360621619   -1.24109189324994    3.28968632698846
O           0.15001247475258    2.81827547996040    1.02065374193964
H          -0.18633913112919    2.28785702726669    0.27178507070733
H          -0.56169078095715    2.84608025151530    1.66355542879791
O           1.72838154979813    0.67347378348505    1.58870944428844
H           1.37443804305308    1.57928657186546    1.50430300182602
H           0.49774282882624   -0.09000248310459    2.32960736517713
H           1.70972689387022    0.32062788398830    0.68081030399470
O          -1.75491718779079   -0.89448784599157    0.51023698435759
H          -1.54895232012960   -0.06259295035885    0.03531935999749
H          -1.02292259066867   -1.86364028140697   -0.32088329471298
H          -1.30560521174850   -0.80567242514543    1.38626082530822
N          -0.36212328891393   -2.35277991151807   -1.06107780287663
H          -0.44078401311182   -1.70963026101350   -1.91215245771015
H          -0.58765573354338   -3.32317019389225   -1.25316070750454
H           0.60096052316009   -2.21573063568132   -0.74481768131316
