    23
        -45.36831546  Gyration_radius:  2.34523147693 Dipole_moment: 5.152
 S           0.04743566909625   -0.28566158493786   -1.75760574116027
O          -0.83128820166616    0.72530892619718   -1.18440237232363
O           1.16425519092682    0.32036946610218   -2.47735918972909
O           0.49928265046950   -1.25565285026201   -0.78600413578600
O          -0.80900533092964   -1.07549110008545   -2.82772801383296
H          -1.06087705595186   -0.42687998227331   -3.47985342544267
O          -0.23348161920672    0.30818843997923    2.74112597841370
H           0.21827272018483   -0.03802820694892    3.51076954673016
O          -2.99439797019392   -0.13321738072216    0.14815031520804
H          -2.26537449730370    0.19672048662052   -0.41308577577067
H          -3.20764678433645    0.58299684942751    0.74998853709133
O          -1.11933500076355   -1.71489081033111    1.32970167146419
H          -0.60058741874290   -0.48195263910803    2.25575565631264
H          -1.95865372335099   -1.35832342721466    0.98126866181961
H          -0.51576806018394   -1.70387998607224    0.56503382382517
O           0.71649257508005    1.75529718764733    0.74209690868523
H           1.88206253426151    1.01253362358031    0.23599095377613
H           0.05938645084719    1.54971205027160    0.04494271633695
H           0.37155810412171    1.31256819297045    1.55576692166676
N           2.56195057136566    0.34384031808836   -0.32461901606588
H           2.32950836951738   -0.61635265228740   -0.05903095948803
H           3.54770937886632    0.56158459283303   -0.22333098680194
H           2.19850146783026    0.42121047649057   -1.32757207494088
