    23
        -45.36831554  Gyration_radius:  2.34521329833 Dipole_moment: 5.158
 S          -0.71048704808513   -1.62023820994465   -0.20544205324414
O          -0.71214130396168   -0.65576017099611   -1.29750370126125
O           0.23131886936117   -2.70863808400764   -0.45266222127349
O          -0.49513366398254   -1.00827191530497    1.08618541832900
O          -2.15401847101678   -2.26632063550525   -0.17011751400567
H          -2.25916674766167   -2.69844717071709   -1.01367004363655
O           0.91278269328552    2.58621397317735    0.37501377317892
H           1.36722412710791    3.05712809635511    1.07361306830522
O          -2.40067482505765    1.41867672405658   -1.10993452337271
H          -1.84998257011531    0.62146809870472   -1.23838361331966
H          -2.00713453736564    2.10100568351040   -1.65777133635421
O           1.69647753068481    0.47908466847486   -1.01724648528900
H           1.48291949316808    1.32880273718784   -0.55953702398781
H           2.08327873675993   -0.53153055006463   -0.01978547193452
H           0.83026432864480    0.12211783250903   -1.30411594324706
O          -1.28485996947257    1.56141741896421    1.36960336199908
H          -1.06190352919640    0.61383362347318    1.40892440094891
H           0.06055716072787    2.25433688094626    0.77288894470384
H          -1.89633871716966    1.63557015722991    0.61225388047116
N           2.10107040472507   -1.37597254140466    0.69464180285582
H           1.50255193391239   -2.11497449311661    0.20500581270589
H           1.53342640084938   -1.10299379955706    1.50067296659140
H           3.02996970383700   -1.69650833386661    0.94736649082813
