    23
        -45.36831561  Gyration_radius:  2.34523610471 Dipole_moment: 5.158
 S          -0.95098290881954   -1.22996648545842    0.86932909044385
O          -0.98073335736684   -1.10919079435663    2.32443031271451
O          -1.60118014477709   -0.09647628029216    0.22496326750356
O           0.38804501659722   -1.46508633050173    0.37859508177184
O          -1.80414659390784   -2.51018564436169    0.50098366454631
H          -2.67062864841405   -2.35133231079304    0.86623736027984
O           1.44490910646475    1.80039150427136   -1.52752061406734
H           2.37226065342335    1.96387284982475   -1.69952752709090
O          -1.72422417140377   -0.10353476385275   -2.45375927706964
H          -1.80163880483986    0.82203849787515   -2.69441313684051
H          -1.77200616648509   -0.13124269142281   -1.47791358131511
O           0.91824458922167   -0.68907991955801   -2.15569572810313
H           0.00921812357467   -0.61474028777784   -2.50364048207217
H           1.26837014580677    0.86458277777630   -1.82395255094513
H           0.80859760458558   -1.09678670918716   -1.27765487376135
O           0.11978824021971    1.88382626803608    0.75933645603070
H           0.86906558579085    1.01690419749893    1.68326549205305
H           0.61881379620154    1.97090615883377   -0.08949398852843
H          -0.63965432724106    1.30227751383143    0.54710922313071
N           1.24552647253807    0.16741476859277    2.28342181403524
H           1.70725435206491   -0.47841116103954    1.63837970146979
H           0.34838466633160   -0.34781416350104    2.55549893905946
H           1.82671679041613    0.43163303562461    3.07202135674675
