    23
        -45.36831562  Gyration_radius:  2.34526156211 Dipole_moment: 5.163
 S          -1.05048078298131    0.82872620713239   -1.17537127578492
O          -0.48947377021727    1.03041005734376   -2.50857775865020
O          -1.22860257056503   -0.58649281760262   -0.87833346927536
O          -0.28971523330996    1.52555008561756   -0.16315876696282
O          -2.49484447282698    1.47387776195334   -1.18660924451716
H          -2.96629634142493    1.02784106764023   -1.88529014361306
O           1.48745688760782   -1.24496133931596    1.97490821095554
H           2.23761901038507   -1.00646875473095    2.51956980996452
O          -2.29406436730701   -1.22423194000296    1.49856882650768
H          -1.99424355861032   -1.00738487843289    0.59392178712453
H          -1.97810306941666   -2.11303253582785    1.67416398989381
O           1.30929020328216   -1.41042820473996   -0.65818624368032
H           1.79903743215413   -0.12082949549009   -1.17103489308706
H           1.44013392851223   -1.44774905210904    0.32091075031554
H           0.34397535410163   -1.29465922765933   -0.77968838223982
O          -0.39871318067352    0.53569183708843    2.34974091902912
H          -1.20285197986699   -0.01333625504262    2.28067118262835
H           0.77311137470332   -0.57968327776785    2.17956027409312
H          -0.37191075238808    1.03230264451607    1.51199895026873
N           1.88785589058833    0.91542925830922   -1.54788170682730
H           1.02089096362833    1.01874467806343   -2.16603585940408
H           2.76119951920122    1.11920451157487   -2.02236628549465
H           1.69872952534606    1.54147965935074   -0.76148066122014
