    23
        -45.36831537  Gyration_radius:  2.3452392857 Dipole_moment: 5.151
 S          -1.68151062627489   -0.53253233744098   -0.24861399386595
O          -1.19068349252144    0.70670064917851   -0.83704142854289
O          -1.88614270723107   -1.56334765105002   -1.26262400082294
O          -0.85445699626399   -1.00630808392967    0.83804955455670
O          -3.10301776969297   -0.20995310992561    0.36596242775259
H          -3.64372530491047    0.05790983534271   -0.37247385849386
O           2.54548281059206    0.93854470471465    0.55099879887999
H           3.32017387380454    0.59657032887857    0.99732170633692
O          -0.78504315871527    2.77966505065451    0.81506057680760
H          -1.01697302128231    2.06653107621478    0.18820825417514
H          -0.13466810895536    3.32341305569390    0.36562283645208
O           1.28510913660671    0.00942737677727   -1.58010081435024
H           0.39659511708356    0.40016827724001   -1.44615918789206
H           1.84232978725593    0.39080801910521   -0.85827586261199
H           1.00071565468898   -1.40406799950496   -1.28488354159530
O           0.52994809871102    0.85613738239283    2.22428453855889
H           0.00127210702952    0.12148718548788    1.86376615218912
H           1.81316352173811    0.94050905890863    1.22809118389604
H           0.03325647723049    1.65812576982217    1.97327379530284
N           0.53698581617646   -2.35735898642388   -0.96862062073868
H           0.97278850280682   -3.18833483989288   -1.35469236797236
H          -0.48669070297181   -2.22990618394574   -1.25109839338657
H           0.50509099485488   -2.35418856838592    0.05394423547822
