    23
        -45.36831548  Gyration_radius:  2.34518078344 Dipole_moment: 5.157
 S           1.34743314928104   -0.54427997644897    1.02992664127088
O           0.80233196930217   -1.40542505189671   -0.01131902778558
O           2.67222313496934   -0.04408584056418    0.67305517689108
O           0.45154464841792    0.52787106649298    1.40035509109297
O           1.53295742591534   -1.44895130905259    2.31429341639751
H           2.15826420896524   -2.12314438117682    2.06157935863990
O          -2.22499681100576    0.75606224409756   -1.46268921299632
H          -2.74520360735042    1.55443147261120   -1.55377541353864
O          -1.60658450639230   -2.49927134108809    0.42584459268446
H          -0.69016689164588   -2.18661960404921    0.29252281609335
H          -1.95355184658203   -2.67754976682319   -0.45076730900678
O          -2.19373776154363    0.08050432699491    1.06929020750013
H          -1.28101764893512    0.30670005006389    1.32414330084790
H          -2.27618380686621    0.49961830667926   -0.50019601985699
H          -2.19532859811052   -0.89402120976344    1.01266167181320
O           0.33734254508172    0.35230723923897   -1.97649538631820
H           0.51506977741787   -0.42076710663376   -1.40129136997589
H          -0.63617147589981    0.50653201038509   -1.90219060797722
H           1.05762731170556    1.40299141473400   -1.23946206623035
N           1.61265988481104    1.98834120766906   -0.48240150106204
H           2.27503618090845    1.26315734786821   -0.05901206192656
H           0.96173400368315    2.19184052669760    0.28014071285500
H           2.07871873392255    2.81375836393879   -0.84421298940689
