    23
        -45.36831545  Gyration_radius:  2.3453847033 Dipole_moment: 5.160
 S          -1.07433845273278    0.10935410678159   -1.41648387648825
O          -1.44478066863654   -1.15784043827623   -2.04095235823841
O          -1.60451711752175    0.21428366430396   -0.06348102095998
O           0.35039060539096    0.34293671213560   -1.48293130393255
O          -1.76512676428235    1.25320654181275   -2.26325583825999
H          -2.69793950182830    1.05628244857049   -2.24212292277741
O           1.68270283043521    0.04024301991303    2.19877478677317
H           2.61710286759769   -0.10324039894697    2.34904468146794
O          -1.10376930186440    2.47773610201048    1.28453051734528
H          -1.37507030639100    1.68910863746128    0.77474537361003
H          -1.16377248155793    2.22665421121832    2.20863475337343
O           1.42053387219457    1.94265886714147    0.41509788629814
H           1.61844764029004    0.80109827146842    1.55718648273522
H           1.12795766492287    1.44244859105552   -0.36804666204017
H           0.61459264012256    2.39555649958914    0.72847795209213
O          -0.13789424226178   -1.61481917511609    1.22987203712244
H           0.41290811381321   -2.10927033360945   -0.04210529695978
H           0.53986700995862   -1.06200029567068    1.69047083432966
H          -0.80258241979160   -0.97553430806637    0.89897265719393
N           0.67559605991086   -2.26129986193667   -1.10590350656742
H           1.04634510082304   -3.18051196362181   -1.32274140367709
H           1.30111648070838   -1.49836919902003   -1.37593811641527
H          -0.23776963925191   -2.02868169914106   -1.61184567601813
