    23
        -45.36831547  Gyration_radius:  2.34526505408 Dipole_moment: 5.151
 S          -0.61771071122649    1.61687900268289   -0.41910447139364
O          -2.06850362241516    1.78036915867360   -0.38154994618317
O          -0.07614049274421    1.33963089707848    0.90475219315050
O          -0.21365179984909    0.64348728941885   -1.40828252333142
O          -0.01449647889485    3.00712052047800   -0.87286867300595
H          -0.32792283429640    3.64084165093033   -0.23288731727181
O           1.15040443217110   -2.44681914614081    0.59328489884258
H           1.22307508470356   -3.29469675603359    0.15499132682034
O           2.58154894184557    1.05051233746903    1.11435856554998
H           1.62497249115911    1.24677047275611    1.07168580823354
H           2.70526546596046    0.51514396982508    1.90090522611249
O          -1.00893030409300   -1.12813820754852    1.36247437503058
H          -1.86922866923303   -1.05011511632350    0.17064271025164
H          -0.22378073602600   -1.69530531760125    1.16539810583696
H          -0.65917649911948   -0.21328172435668    1.38858226860760
O           2.14366716201228   -0.61397625152696   -0.99552365487167
H           1.58170877618606   -1.78301382936062   -0.01337224333129
H           1.33941073058747   -0.15176599557358   -1.29323586873610
H           2.55304908694462   -0.00056523034603   -0.35593760592772
N          -2.38014829273156   -0.73909972003251   -0.75985477078621
H          -2.50822587524163    0.31363971707658   -0.62087878836314
H          -3.24101392000453   -1.23853490586816   -0.95714320279283
H          -1.69417192571771   -0.79908281565842   -1.51643640241129
