    23
        -45.36831531  Gyration_radius:  2.34519014532 Dipole_moment: 5.149
 S          -1.13953010363488   -0.76484902495609    1.13600509405627
O          -1.71468123906228   -2.03772952272488    0.70964412761975
O           0.30050641867365   -0.86747620103237    1.33199696386369
O          -1.51170383337966    0.31504840051781    0.25020574252898
O          -1.76641823643266   -0.43281139623426    2.54994765439388
H          -1.54826643744909   -1.17681262152335    3.10514302536614
O           1.77040900328262    1.35595543417457   -1.63996052025890
H           1.70491961221306    1.86061181533630   -2.45075382967511
O           1.59052883692349    1.32871325288695    2.17020523146228
H           1.12331242967767    0.49708320237602    1.95697140798095
H           2.49505427631623    1.20502234404694    1.87505527923991
O           1.16903776708453   -1.17785198834374   -1.18137372211165
H           1.48881054470820   -0.27150129942894   -1.41241300857847
H           1.01725937366221   -1.15296399357678   -0.21367881870556
H          -0.21177376529635   -1.34723672092943   -1.66197625372061
O           0.16465305629557    2.43229825030279    0.12995457420146
H           0.66614997824630    2.29863503383265    0.95676844553576
H           1.18863101505927    1.82036523931917   -0.97616465153252
H          -0.55356204315315    1.77552275078025    0.17363356922894
N          -1.31256897168643   -1.41493598322321   -1.74775139006304
H          -1.64348142130953   -1.89769264452091   -2.57651975924629
H          -1.68211440448419   -0.46525613093888   -1.65679530917027
H          -1.59517184630922   -1.88213816606149   -0.82814386240385
