    23
        -45.36831547  Gyration_radius:  2.34521634833 Dipole_moment: 5.151
 S          -1.59583101741387    0.69139376686165   -0.38472917293107
O          -1.89747437943524    1.98686507143752    0.21819176940413
O          -0.48935429515772    0.78503543690491   -1.32797456861948
O          -1.39769600140014   -0.33242897682216    0.61616232575357
O          -2.87020075181038    0.27117857379263   -1.22244908616617
H          -3.00715289352395    0.97808815668649   -1.84765111943786
O           2.41832934892871   -1.25032577421787    0.50089851136255
H           2.81362339808968   -1.70447392928778    1.24507151349732
O           0.22712198567025   -1.45616243698850   -2.61430259816022
H          -0.08166264547482   -0.61385467828572   -2.22643987803229
H           1.14462898894141   -1.31335280593482   -2.85598359240018
O           1.57769523540717    1.24936070742246    0.30895222107934
H           2.00221936072473    0.35938915737128    0.37831964187953
H           0.93275908539062    1.16504909620540   -0.42384260531991
H           0.66386597320299    1.44676139137535    1.44556653758281
O           0.15301493048731   -2.43592688043555   -0.07480613884274
H           1.58824957769554   -1.75554855193629    0.27634985582457
H          -0.49863477655336   -1.78394890898983    0.24055295350908
H           0.12863805153841   -2.35201677911374   -1.04705907044263
N          -0.22137444112427    1.51902562111409    2.10503712498688
H          -0.96861259151662    1.92641764755226    1.45721136512304
H          -0.07338431352643    2.05394799334454    2.95436025699277
H          -0.54876783920138    0.56552709202614    2.27856375338830
