    23
        -45.37063474  Gyration_radius:  2.44936395303 Dipole_moment: 4.615
 S          -2.15769994424105   -0.66014597783852   -0.50260044675122
O          -1.29081557533802   -1.80640894598051   -0.31839636046890
O          -2.87450179232738   -0.27370610305610    0.69339228058166
O          -1.43844882130014    0.44439195239654   -1.14276998095448
O          -3.27807756633676   -1.08340860499800   -1.55615575570950
H          -3.96287142634473   -1.42407084779851   -0.98954721653518
O           1.19537491888603    0.42926374238605    1.89740881426333
H           1.33136065851295    0.53469757899025    2.84011347099468
O           2.53769252734684    1.63160301118310   -0.12785010284360
H           2.08983051259101    1.28856229871315    0.67443013476819
H           3.47689311351476    1.49883026740902    0.00825165441088
O           1.25156638346228   -1.85869589048595    0.31399983957133
H           0.29698797803007   -2.05868688005924    0.19438844659633
H           1.24039643503650   -0.91416478838314   -0.93153607185769
H           1.28596620859439   -1.20990999254236    1.03714845580048
O          -1.10188292636832    1.52342568495588    1.35250503946937
H          -1.04633168170987    1.82866318289804    0.44004822893504
H          -1.83191804770035    0.86605876707309    1.31656692601067
H           0.29369714224633    0.82159978108174    1.71118445866013
N           1.05962299159405   -0.09349449948426   -1.60075146306336
H           0.02058724842788    0.14017605396899   -1.48788048310268
H           1.26855132356567   -0.32821817201232   -2.56400928947537
H           1.63402033981170    0.70363838165911   -1.25794056932471
