    23
        -45.37063514  Gyration_radius:  2.44923419236 Dipole_moment: 4.619
 S          -0.69952684714591   -2.00091916566396   -0.92155790856428
O           0.43444910958207   -2.86088010113687   -0.66068818642818
O          -1.46937277483620   -1.67605854715126    0.26224498778388
O          -0.36220585233845   -0.79152429512853   -1.67691531469127
O          -1.65611122719510   -2.83315568840829   -1.88933140867401
H          -1.49273917645863   -3.72747407915131   -1.60730990789219
O           1.52929399033259    0.65115678810539    1.56485179884763
H           2.23595080932776    0.52961657339733    2.20059139658932
O           0.96501528739039    2.85964460739288    0.09728954016590
H           1.28159318921897    2.10523044438730    0.63812153842709
H           0.90615065995222    3.61132982587649    0.68872672157291
O           2.09871716913332   -0.86044331398130   -0.47515754743451
H           1.63320465785665   -1.72564243414455   -0.44158044604845
H           1.70291406470667   -0.43645746934725   -1.24483977490646
H           1.74436582593222    0.03702971324689    0.80436944703649
O          -1.22490371174285    0.38468877837226    1.86232277085731
H          -1.39783404528990   -0.49926124881991    1.46955802087384
H          -0.26134904392587    0.42354008362867    1.98520344402267
H          -1.37316525918513    1.06808536863410    0.46417618558742
N          -1.21267542656002    1.38655498923332   -0.54912720655403
H          -2.04867675057114    1.77725668229561   -0.96753572701766
H          -0.90425222348645    0.50706450730079   -1.07663972957513
H          -0.42884242469819    2.07061800107547   -0.52677269399683
